@<TRIPOS>MOLECULE
WB4
   68    72     1     0     0
SMALL
No Charge or Current Charge


@<TRIPOS>ATOM
      1 C1          46.1500    12.0440   -37.6300 c3         1 WB4       0.091400
      2 N2          47.0970    11.5740   -36.6030 ns         1 WB4      -0.514900
      3 C3          43.6140     9.7710   -38.8750 cc         1 WB4       0.258900
      4 C4          44.7020     8.9540   -39.0730 cd         1 WB4      -0.153000
      5 C11         44.8350     3.6640   -41.2300 ca         1 WB4      -0.095000
      6 C13         47.2530     3.6110   -40.9450 ca         1 WB4      -0.104000
      7 C14         47.2210     4.9120   -40.4150 ca         1 WB4      -0.101000
      8 C15         46.7390    11.2130   -35.3250 c          1 WB4       0.642700
      9 C16         47.8560    10.7810   -34.4740 cc         1 WB4      -0.337600
     10 C17         49.1760    10.7170   -34.8590 cd         1 WB4       0.300900
     11 C24         48.6870    17.4080   -44.3580 ca         1 WB4      -0.090000
     12 C26         49.5900    17.8360   -46.5890 ca         1 WB4      -0.102000
     13 C27         49.0810    16.6100   -47.0340 ca         1 WB4      -0.099000
     14 C28         48.3660    15.7850   -46.1510 ca         1 WB4      -0.072000
     15 C22         47.3140    15.2130   -43.9510 c          1 WB4       0.601700
     16 C23         48.1380    16.1660   -44.8060 ca         1 WB4      -0.117600
     17 C25         49.3960    18.2270   -45.2570 ca         1 WB4      -0.079000
     18 C29         49.7300    16.8190   -41.7770 c3         1 WB4       0.036900
     19 N4          46.6700    15.7420   -42.8560 ns         1 WB4      -0.490900
     20 C21         45.8940    14.9780   -41.8790 c3         1 WB4       0.101000
     21 C20         46.8000    14.3020   -40.8300 c3         1 WB4      -0.104400
     22 C19         46.0070    13.4950   -39.7810 c3         1 WB4      -0.071400
     23 C           46.9180    12.8170   -38.7300 c3         1 WB4      -0.085400
     24 O           45.5820    11.2540   -34.9410 o          1 WB4      -0.575100
     25 S           47.6370    10.2770   -32.8220 ss         1 WB4       0.111600
     26 C18         49.3590    10.0120   -32.7580 cc         1 WB4       0.389300
     27 N3          50.0420    10.2740   -33.8700 nd         1 WB4      -0.637000
     28 C2          45.2980    10.9130   -38.1910 cd         1 WB4       0.395800
     29 N1          45.7850     9.6980   -38.6290 na         1 WB4      -0.283500
     30 N           43.9820    10.9730   -38.3350 nc         1 WB4      -0.660000
     31 C5          44.7360     7.5890   -39.6300 ca         1 WB4       0.010000
     32 C10         43.5460     6.9520   -40.0420 ca         1 WB4      -0.094000
     33 C9          43.5770     5.6510   -40.5730 ca         1 WB4      -0.092000
     34 C8          44.7990     4.9680   -40.6990 ca         1 WB4      -0.037000
     35 C12         46.0610     2.9880   -41.3530 ca         1 WB4      -0.107000
     36 C7          45.9950     5.5950   -40.2900 ca         1 WB4      -0.030000
     37 C6          45.9590     6.8980   -39.7590 ca         1 WB4      -0.106000
     38 H1          45.4640    12.7540   -37.1460 h1         1 WB4       0.100700
     39 H2          48.0800    11.5290   -36.8370 hn         1 WB4       0.318500
     40 H3          42.5720     9.5730   -39.0890 h4         1 WB4       0.039100
     41 H4          43.9170     3.1750   -41.5480 ha         1 WB4       0.114000
     42 H5          48.2010     3.0860   -41.0410 ha         1 WB4       0.113000
     43 H6          48.1480     5.3880   -40.1020 ha         1 WB4       0.111000
     44 H7          49.5770    10.9740   -35.8310 h4         1 WB4       0.035100
     45 H8          50.1450    18.4770   -47.2710 ha         1 WB4       0.119000
     46 H9          49.2340    16.2990   -48.0650 ha         1 WB4       0.121000
     47 H10         47.9690    14.8440   -46.5260 ha         1 WB4       0.135000
     48 H11         49.8160    19.1700   -44.9130 ha         1 WB4       0.129000
     49 H12         49.7580    17.0720   -40.7100 h1         1 WB4       0.066367
     50 H13         49.3650    15.7920   -41.8940 h1         1 WB4       0.066367
     51 H14         50.7430    16.8900   -42.1920 h1         1 WB4       0.066367
     52 H15         46.8060    16.7340   -42.7020 hn         1 WB4       0.330500
     53 H16         45.1970    15.6610   -41.3760 h1         1 WB4       0.060700
     54 H17         45.3000    14.2170   -42.4040 h1         1 WB4       0.060700
     55 H18         47.5070    13.6360   -41.3390 hc         1 WB4       0.043700
     56 H19         47.3930    15.0730   -40.3210 hc         1 WB4       0.043700
     57 H20         45.3000    14.1610   -39.2700 hc         1 WB4       0.058200
     58 H21         45.4110    12.7320   -40.2970 hc         1 WB4       0.058200
     59 H22         47.6090    12.1330   -39.2390 hc         1 WB4       0.042700
     60 H23         47.5340    13.5900   -38.2510 hc         1 WB4       0.042700
     61 H24         49.8000     9.6510   -31.8370 h5         1 WB4       0.055100
     62 H25         46.7570     9.4210   -38.6180 hn         1 WB4       0.350000
     63 H27         42.5900     7.4600   -39.9550 ha         1 WB4       0.120000
     64 H28         42.6490     5.1770   -40.8860 ha         1 WB4       0.116000
     65 H29         46.0870     1.9810   -41.7630 ha         1 WB4       0.114000
     66 H30         46.8870     7.3690   -39.4470 ha         1 WB4       0.101000
     67 S1          48.6130    17.9940   -42.6650 ss         1 WB4      -0.232000
     68 O1          47.2150    14.0230   -44.2220 o          1 WB4      -0.602100
@<TRIPOS>BOND
     1     1     2 1   
     2     1    23 1   
     3     1    28 1   
     4     1    38 1   
     5     2     8 1   
     6     2    39 1   
     7     3     4 2   
     8     3    30 1   
     9     3    40 1   
    10     4    29 1   
    11     4    31 1   
    12     5    34 ar  
    13     5    35 ar  
    14     5    41 1   
    15     6     7 ar  
    16     6    35 ar  
    17     6    42 1   
    18     7    36 ar  
    19     7    43 1   
    20     8     9 1   
    21     8    24 2   
    22     9    10 2   
    23     9    25 1   
    24    10    27 1   
    25    10    44 1   
    26    11    16 ar  
    27    11    17 ar  
    28    11    67 1   
    29    12    13 ar  
    30    12    17 ar  
    31    12    45 1   
    32    13    14 ar  
    33    13    46 1   
    34    14    16 ar  
    35    14    47 1   
    36    15    16 1   
    37    15    19 1   
    38    15    68 2   
    39    17    48 1   
    40    18    49 1   
    41    18    50 1   
    42    18    51 1   
    43    18    67 1   
    44    19    20 1   
    45    19    52 1   
    46    20    21 1   
    47    20    53 1   
    48    20    54 1   
    49    21    22 1   
    50    21    55 1   
    51    21    56 1   
    52    22    23 1   
    53    22    57 1   
    54    22    58 1   
    55    23    59 1   
    56    23    60 1   
    57    25    26 1   
    58    26    27 2   
    59    26    61 1   
    60    28    29 1   
    61    28    30 2   
    62    29    62 1   
    63    31    32 ar  
    64    31    37 ar  
    65    32    33 ar  
    66    32    63 1   
    67    33    34 ar  
    68    33    64 1   
    69    34    36 ar  
    70    35    65 1   
    71    36    37 ar  
    72    37    66 1   
@<TRIPOS>SUBSTRUCTURE
     1 WB4         1 TEMP              0 ****  ****    0 ROOT
