@<TRIPOS>MOLECULE
WB4
   68    72     1     0     0
SMALL
bcc


@<TRIPOS>ATOM
      1 C1          46.0330    12.1560   -37.6740 c3         1 WB4       0.091400
      2 N2          46.9690    11.6310   -36.6970 ns         1 WB4      -0.581900
      3 C3          43.6060     9.9210   -39.0980 cc         1 WB4       0.324200
      4 C4          44.7070     9.1000   -39.1390 cd         1 WB4      -0.167600
      5 C11         45.2530     3.7670   -41.0560 ca         1 WB4      -0.113000
      6 C13         47.6470     3.9470   -40.8400 ca         1 WB4      -0.122000
      7 C14         47.5330     5.2300   -40.3750 ca         1 WB4      -0.119000
      8 C15         46.5580    11.1030   -35.5320 c          1 WB4       0.709700
      9 C16         47.6080    10.6380   -34.6090 cc         1 WB4      -0.258000
     10 C17         48.9710    10.6520   -34.6850 cd         1 WB4       0.366200
     11 C24         49.0630    17.0540   -44.2990 ca         1 WB4       0.036900
     12 C26         49.4100    17.8320   -46.5630 ca         1 WB4      -0.120000
     13 C27         48.3410    17.0610   -46.9940 ca         1 WB4      -0.117000
     14 C28         47.6430    16.2860   -46.0820 ca         1 WB4      -0.090000
     15 C22         47.1100    15.4140   -43.8550 c          1 WB4       0.668700
     16 C23         47.9690    16.2890   -44.7270 ca         1 WB4      -0.117600
     17 C25         49.7750    17.8120   -45.2260 ca         1 WB4      -0.097000
     18 C29         50.1600    15.4570   -42.2900 c3         1 WB4      -0.011000
     19 N4          46.6740    15.9510   -42.7090 ns         1 WB4      -0.557900
     20 C21         45.9060    15.2100   -41.7310 c3         1 WB4       0.101000
     21 C20         46.7780    14.4120   -40.7680 c3         1 WB4      -0.104400
     22 C19         45.9470    13.6440   -39.7480 c3         1 WB4      -0.071400
     23 C           46.8250    12.9100   -38.7460 c3         1 WB4      -0.085400
     24 O           45.3790    10.9980   -35.2260 o          1 WB4      -0.575100
     25 S           47.1270     9.9310   -33.1200 ss         1 WB4      -0.033300
     26 C18         48.7750     9.7130   -32.7240 cc         1 WB4       0.389300
     27 N3          49.6230    10.1270   -33.6160 nd         1 WB4      -0.637000
     28 C2          45.1990    11.0570   -38.2560 cd         1 WB4       0.395800
     29 N1          45.7130     9.8600   -38.5990 na         1 WB4      -0.283900
     30 N           43.9250    11.1270   -38.5490 nc         1 WB4      -0.660000
     31 C5          44.8780     7.7390   -39.6220 ca         1 WB4       0.010000
     32 C10         43.7270     6.9820   -39.9700 ca         1 WB4      -0.112000
     33 C9          43.8390     5.7050   -40.4340 ca         1 WB4      -0.110000
     34 C8          45.1060     5.0900   -40.5800 ca         1 WB4      -0.037000
     35 C12         46.4960     3.2080   -41.1840 ca         1 WB4      -0.125000
     36 C7          46.2610     5.8340   -40.2320 ca         1 WB4      -0.030000
     37 C6          46.1170     7.1570   -39.7590 ca         1 WB4      -0.124000
     38 H1          45.3490    12.8560   -37.1860 h1         1 WB4       0.100700
     39 H2          47.9530    11.7120   -36.8990 hn         1 WB4       0.318500
     40 H3          42.6060     9.7010   -39.4380 h4         1 WB4       0.039100
     41 H4          44.3660     3.2020   -41.3160 ha         1 WB4       0.132000
     42 H5          48.6240     3.4950   -40.9480 ha         1 WB4       0.131000
     43 H6          48.4180     5.7960   -40.1120 ha         1 WB4       0.129000
     44 H7          49.5480    11.0420   -35.5130 h4         1 WB4       0.035100
     45 H8          49.9700    18.4370   -47.2640 ha         1 WB4       0.137000
     46 H9          48.0520    17.0580   -48.0360 ha         1 WB4       0.139000
     47 H10         46.8130    15.6810   -46.4240 ha         1 WB4       0.153000
     48 H11         50.6310    18.3840   -44.8920 ha         1 WB4       0.147000
     49 H12         50.5780    15.4550   -41.2850 h1         1 WB4       0.066367
     50 H13         49.3380    14.7470   -42.3220 h1         1 WB4       0.066367
     51 H14         50.9330    15.1660   -42.9970 h1         1 WB4       0.066367
     52 H15         47.0520    16.8410   -42.4230 hn         1 WB4       0.330500
     53 H16         45.3000    15.9280   -41.1780 h1         1 WB4       0.060700
     54 H17         45.2170    14.5470   -42.2550 h1         1 WB4       0.060700
     55 H18         47.3960    13.7110   -41.3360 hc         1 WB4       0.043700
     56 H19         47.4620    15.0940   -40.2540 hc         1 WB4       0.043700
     57 H20         45.2870    14.3350   -39.2130 hc         1 WB4       0.058200
     58 H21         45.2950    12.9390   -40.2720 hc         1 WB4       0.058200
     59 H22         47.4880    12.2120   -39.2700 hc         1 WB4       0.042700
     60 H23         47.4680    13.6340   -38.2370 hc         1 WB4       0.042700
     61 H24         49.0650     9.2570   -31.7880 h5         1 WB4       0.055100
     62 H25         46.6640     9.5660   -38.4360 hn         1 WB4       0.299700
     63 H27         42.7440     7.4210   -39.8560 ha         1 WB4       0.138000
     64 H28         42.9480     5.1450   -40.6910 ha         1 WB4       0.134000
     65 H29         46.6010     2.1950   -41.5500 ha         1 WB4       0.132000
     66 H30         47.0230     7.7020   -39.5190 ha         1 WB4       0.119000
     67 S1          49.6080    17.1530   -42.6090 ss         1 WB4      -0.311000
     68 O1          46.7880    14.2970   -44.2400 o          1 WB4      -0.602100
@<TRIPOS>BOND
     1     1     2 1   
     2     1    23 1   
     3     1    28 1   
     4     1    38 1   
     5     2     8 1   
     6     2    39 1   
     7     3     4 2   
     8     3    30 1   
     9     3    40 1   
    10     4    29 1   
    11     4    31 1   
    12     5    34 ar  
    13     5    35 ar  
    14     5    41 1   
    15     6     7 ar  
    16     6    35 ar  
    17     6    42 1   
    18     7    36 ar  
    19     7    43 1   
    20     8     9 1   
    21     8    24 2   
    22     9    10 2   
    23     9    25 1   
    24    10    27 1   
    25    10    44 1   
    26    11    16 ar  
    27    11    17 ar  
    28    11    67 1   
    29    12    13 ar  
    30    12    17 ar  
    31    12    45 1   
    32    13    14 ar  
    33    13    46 1   
    34    14    16 ar  
    35    14    47 1   
    36    15    16 1   
    37    15    19 1   
    38    15    68 2   
    39    17    48 1   
    40    18    49 1   
    41    18    50 1   
    42    18    51 1   
    43    18    67 1   
    44    19    20 1   
    45    19    52 1   
    46    20    21 1   
    47    20    53 1   
    48    20    54 1   
    49    21    22 1   
    50    21    55 1   
    51    21    56 1   
    52    22    23 1   
    53    22    57 1   
    54    22    58 1   
    55    23    59 1   
    56    23    60 1   
    57    25    26 1   
    58    26    27 2   
    59    26    61 1   
    60    28    29 1   
    61    28    30 2   
    62    29    62 1   
    63    31    32 ar  
    64    31    37 ar  
    65    32    33 ar  
    66    32    63 1   
    67    33    34 ar  
    68    33    64 1   
    69    34    36 ar  
    70    35    65 1   
    71    36    37 ar  
    72    37    66 1   
@<TRIPOS>SUBSTRUCTURE
     1 WB4         1 TEMP              0 ****  ****    0 ROOT
