@<TRIPOS>MOLECULE
WB6
   35    35     1     0     0
SMALL
abcg2


@<TRIPOS>ATOM
      1 N1          25.6690    18.2330    38.0320 na         1 WB6      -0.167500
      2 C7          26.2640    18.0660    36.8080 cc         1 WB6       0.089000
      3 C8          24.8170    19.2880    37.9110 cc         1 WB6       0.399400
      4 N2          24.8330    19.7970    36.6990 nd         1 WB6      -0.596000
      5 C9          25.9010    17.4350    39.2290 c3         1 WB6       0.055900
      6 O1          27.1400    18.5700    33.8850 o          1 WB6      -0.540000
      7 C1          25.1440    17.1000    31.0030 c3         1 WB6      -0.075400
      8 C5          23.4140    19.3580    33.5010 c3         1 WB6       0.194100
      9 C6          25.7410    19.0470    35.9920 cd         1 WB6       0.021900
     10 C4          23.6500    16.5800    34.5820 c3         1 WB6      -0.114100
     11 C3          24.5930    17.1260    33.5110 c3         1 WB6       0.221500
     12 C2          24.2100    16.6320    32.1140 c3         1 WB6      -0.068400
     13 CL          27.3880    16.8170    36.5370 cl         1 WB6      -0.094000
     14 S           25.9550    19.2970    34.2700 sy         1 WB6       1.173200
     15 O           25.8890    20.7170    34.0240 o          1 WB6      -0.540000
     16 N           24.6770    18.6120    33.5260 n3         1 WB6      -0.761500
     17 C           24.7710    16.5160    29.6420 c3         1 WB6      -0.088100
     18 H1          24.2230    19.6360    38.7410 h5         1 WB6       0.065100
     19 H2          25.2740    17.8320    40.0230 h1         1 WB6       0.063700
     20 H3          25.6370    16.3960    39.0400 h1         1 WB6       0.063700
     21 H4          26.9470    17.4990    39.5220 h1         1 WB6       0.063700
     22 H5          26.1720    16.8210    31.2560 hc         1 WB6       0.050700
     23 H6          25.1260    18.1920    30.9520 hc         1 WB6       0.050700
     24 H7          23.6140    20.4020    33.2850 h1         1 WB6       0.053033
     25 H8          22.7980    18.9520    32.7000 h1         1 WB6       0.053033
     26 H9          22.8680    19.2800    34.4430 h1         1 WB6       0.053033
     27 H10         23.9080    16.9530    35.5730 hc         1 WB6       0.042700
     28 H11         22.6130    16.8430    34.3730 hc         1 WB6       0.042700
     29 H12         23.7220    15.4920    34.6010 hc         1 WB6       0.042700
     30 H13         25.6020    16.7720    33.7200 h1         1 WB6       0.072700
     31 H14         23.1820    16.9280    31.8850 hc         1 WB6       0.039700
     32 H15         24.2090    15.5380    32.1540 hc         1 WB6       0.039700
     33 H16         25.4440    16.8720    28.8600 hc         1 WB6       0.030700
     34 H17         24.8200    15.4240    29.6560 hc         1 WB6       0.030700
     35 H18         23.7530    16.7990    29.3620 hc         1 WB6       0.030700
@<TRIPOS>BOND
     1     1     2 1   
     2     1     3 1   
     3     1     5 1   
     4     2     9 2   
     5     2    13 1   
     6     3     4 2   
     7     3    18 1   
     8     4     9 1   
     9     5    19 1   
    10     5    20 1   
    11     5    21 1   
    12     6    14 2   
    13     7    12 1   
    14     7    17 1   
    15     7    22 1   
    16     7    23 1   
    17     8    16 1   
    18     8    24 1   
    19     8    25 1   
    20     8    26 1   
    21     9    14 1   
    22    10    11 1   
    23    10    27 1   
    24    10    28 1   
    25    10    29 1   
    26    11    12 1   
    27    11    16 1   
    28    11    30 1   
    29    12    31 1   
    30    12    32 1   
    31    14    15 2   
    32    14    16 1   
    33    17    33 1   
    34    17    34 1   
    35    17    35 1   
@<TRIPOS>SUBSTRUCTURE
     1 WB6         1 TEMP              0 ****  ****    0 ROOT
