@<TRIPOS>MOLECULE
WB6
   35    35     1     0     0
SMALL
No Charge or Current Charge


@<TRIPOS>ATOM
      1 N1          25.5990    18.2070    38.0280 na         1 WB6      -0.167500
      2 C7          26.1690    18.1020    36.7800 cc         1 WB6       0.089000
      3 C8          24.7490    19.2920    37.9980 cc         1 WB6       0.399400
      4 N2          24.7520    19.8670    36.8040 nd         1 WB6      -0.596000
      5 C9          25.8420    17.3260    39.1800 c3         1 WB6       0.055900
      6 O1          27.2480    18.7080    33.8350 o          1 WB6      -0.540000
      7 C1          25.1590    17.0290    30.9610 c3         1 WB6      -0.075400
      8 C5          23.4300    19.4180    33.5490 c3         1 WB6       0.194100
      9 C6          25.6430    19.1230    36.0190 cd         1 WB6       0.021900
     10 C4          23.7360    16.6370    34.6220 c3         1 WB6      -0.114100
     11 C3          24.6480    17.2060    33.5060 c3         1 WB6       0.221500
     12 C2          24.2260    16.6270    32.1290 c3         1 WB6      -0.068400
     13 Cl          27.2990    16.8570    36.3250 cl         1 WB6      -0.094000
     14 S           26.0520    19.4450    34.2650 sy         1 WB6       1.173200
     15 O           25.9290    20.8790    33.9640 o          1 WB6      -0.540000
     16 N           24.7210    18.6930    33.4790 n3         1 WB6      -0.761500
     17 C           24.7540    16.3910    29.6190 c3         1 WB6      -0.088100
     18 H1          24.1690    19.6020    38.8600 h5         1 WB6       0.065100
     19 H2          25.2550    17.6640    40.0440 h1         1 WB6       0.063700
     20 H3          25.5490    16.3000    38.9270 h1         1 WB6       0.063700
     21 H4          26.9070    17.3440    39.4400 h1         1 WB6       0.063700
     22 H5          26.1890    16.7360    31.2010 hc         1 WB6       0.050700
     23 H6          25.1570    18.1200    30.8470 hc         1 WB6       0.050700
     24 H7          23.5360    20.4560    33.2080 h1         1 WB6       0.053033
     25 H8          22.6750    18.9440    32.9080 h1         1 WB6       0.053033
     26 H9          23.0400    19.4330    34.5750 h1         1 WB6       0.053033
     27 H10         23.9900    17.0400    35.6060 hc         1 WB6       0.042700
     28 H11         22.6810    16.8640    34.4260 hc         1 WB6       0.042700
     29 H12         23.8380    15.5470    34.6760 hc         1 WB6       0.042700
     30 H13         25.6510    16.7980    33.6950 h1         1 WB6       0.072700
     31 H14         23.2010    16.9390    31.8950 hc         1 WB6       0.039700
     32 H15         24.2090    15.5330    32.1990 hc         1 WB6       0.039700
     33 H16         25.4410    16.7050    28.8240 hc         1 WB6       0.030700
     34 H17         24.7830    15.2960    29.6840 hc         1 WB6       0.030700
     35 H18         23.7390    16.6940    29.3350 hc         1 WB6       0.030700
@<TRIPOS>BOND
     1     1     2 1   
     2     1     3 1   
     3     1     5 1   
     4     2     9 2   
     5     2    13 1   
     6     3     4 2   
     7     3    18 1   
     8     4     9 1   
     9     5    19 1   
    10     5    20 1   
    11     5    21 1   
    12     6    14 2   
    13     7    12 1   
    14     7    17 1   
    15     7    22 1   
    16     7    23 1   
    17     8    16 1   
    18     8    24 1   
    19     8    25 1   
    20     8    26 1   
    21     9    14 1   
    22    10    11 1   
    23    10    27 1   
    24    10    28 1   
    25    10    29 1   
    26    11    12 1   
    27    11    16 1   
    28    11    30 1   
    29    12    31 1   
    30    12    32 1   
    31    14    15 2   
    32    14    16 1   
    33    17    33 1   
    34    17    34 1   
    35    17    35 1   
@<TRIPOS>SUBSTRUCTURE
     1 WB6         1 TEMP              0 ****  ****    0 ROOT
