@<TRIPOS>MOLECULE
WB7
   65    69     1     0     0
SMALL
abcg2


@<TRIPOS>ATOM
      1 O1         -18.8980    12.3770    17.0360 o          1 WB7      -0.598100
      2 C7         -19.5290    13.3670    23.0100 c6         1 WB7      -0.046100
      3 O2         -24.5850    17.8550    14.6140 o          1 WB7      -0.524500
      4 C6         -18.4760    12.8350    23.9690 c6         1 WB7       0.162600
      5 C1         -12.2050    10.2670    23.6300 ca         1 WB7      -0.075300
      6 N1         -21.0510    12.3840    17.7450 ns         1 WB7      -0.499900
      7 C5         -16.7240    12.6100    22.3460 c6         1 WB7       0.256300
      8 C4         -15.4920    13.4080    21.9160 c6         1 WB7      -0.078400
      9 C3         -14.3310    13.2290    22.8830 c6         1 WB7       0.174800
     10 C2         -12.7920    11.6390    23.8160 c3         1 WB7       0.220100
     11 O3         -25.0700    16.3780    12.6390 o          1 WB7      -0.524500
     12 C18        -22.7540    17.6310    12.7370 c3         1 WB7      -0.334100
     13 C17        -23.3780    15.5200    14.4600 ca         1 WB7      -0.271500
     14 C16        -22.7890    15.7100    15.7010 ca         1 WB7      -0.012000
     15 C15        -22.2130    14.6300    16.3540 ca         1 WB7      -0.124000
     16 C19        -23.4010    14.2630    13.8670 ca         1 WB7      -0.012000
     17 C20        -22.8280    13.1960    14.5330 ca         1 WB7      -0.124000
     18 C14        -22.2310    13.3640    15.7810 ca         1 WB7      -0.042300
     19 C13        -21.6480    12.1470    16.4590 c3         1 WB7       0.137300
     20 C12        -19.7200    12.4620    17.9380 c          1 WB7       0.644700
     21 C10        -19.2770    12.6340    19.3330 cc         1 WB7      -0.312600
     22 C11        -19.9510    12.9950    20.4650 cd         1 WB7      -0.089000
     23 C8         -19.1180    13.0290    21.6130 cd         1 WB7      -0.106300
     24 O          -17.1780    13.2030    23.5490 os         1 WB7      -0.451000
     25 S          -17.6100    12.3450    19.6590 ss         1 WB7       0.346000
     26 C9         -17.8260    12.6920    21.3240 cc         1 WB7      -0.250300
     27 C21        -16.2940    11.1520    22.5730 c6         1 WB7      -0.078400
     28 C22        -15.1090    11.0540    23.5190 c6         1 WB7       0.174800
     29 N          -13.9880    11.8270    23.0200 n3         1 WB7      -0.720600
     30 C23        -12.2300     9.3370    24.6670 ca         1 WB7      -0.103000
     31 C24        -11.7130     8.0590    24.5150 ca         1 WB7      -0.112000
     32 C25        -11.1520     7.6850    23.3030 ca         1 WB7      -0.100000
     33 C26        -11.1050     8.5920    22.2540 ca         1 WB7      -0.109000
     34 C          -11.6300     9.8640    22.4270 ca         1 WB7       0.144000
     35 CL         -11.5240    10.9760    21.0980 cl         1 WB7      -0.197000
     36 H1         -19.6380    14.4490    23.1230 hc         1 WB7       0.058700
     37 H2         -20.5000    12.9270    23.2470 hc         1 WB7       0.058700
     38 H3         -18.6080    13.2560    24.9660 h1         1 WB7       0.048200
     39 H4         -18.5750    11.7460    24.0600 h1         1 WB7       0.048200
     40 H5         -21.6640    12.3860    18.5440 hn         1 WB7       0.320500
     41 H6         -15.1740    13.0690    20.9270 hc         1 WB7       0.057950
     42 H7         -15.7480    14.4660    21.8280 hc         1 WB7       0.057950
     43 H8         -13.4630    13.7610    22.4860 h1         1 WB7       0.038200
     44 H9         -14.5680    13.6950    23.8530 h1         1 WB7       0.038200
     45 H10        -12.0580    12.3890    23.5110 h1         1 WB7       0.043200
     46 H11        -12.9760    11.8060    24.8900 h1         1 WB7       0.043200
     47 H12        -21.9950    17.9490    13.4480 h1         1 WB7       0.102700
     48 H13        -22.3390    16.9070    12.0400 h1         1 WB7       0.102700
     49 H14        -23.1430    18.4930    12.1950 h1         1 WB7       0.102700
     50 H15        -22.7740    16.6870    16.1670 ha         1 WB7       0.137000
     51 H16        -21.7550    14.7840    17.3230 ha         1 WB7       0.121500
     52 H17        -23.8620    14.1110    12.9000 ha         1 WB7       0.137000
     53 H18        -22.8520    12.2140    14.0760 ha         1 WB7       0.121500
     54 H19        -22.4410    11.4050    16.5830 h1         1 WB7       0.071200
     55 H20        -20.9060    11.6920    15.8030 h1         1 WB7       0.071200
     56 H21        -21.0050    13.2420    20.4960 ha         1 WB7       0.128000
     57 H22        -17.1260    10.5570    22.9560 hc         1 WB7       0.057950
     58 H23        -16.0190    10.7130    21.6100 hc         1 WB7       0.057950
     59 H24        -15.4030    11.3700    24.5340 h1         1 WB7       0.038200
     60 H25        -14.8140    10.0050    23.5960 h1         1 WB7       0.038200
     61 H27        -12.6720     9.6300    25.6120 ha         1 WB7       0.113000
     62 H28        -11.7500     7.3590    25.3390 ha         1 WB7       0.117000
     63 H29        -10.7470     6.6910    23.1680 ha         1 WB7       0.117000
     64 H30        -10.6630     8.3100    21.3080 ha         1 WB7       0.129000
     65 S1         -24.1150    16.8950    13.6170 sy         1 WB7       1.057500
@<TRIPOS>BOND
     1     1    20 2   
     2     2     4 1   
     3     2    23 1   
     4     2    36 1   
     5     2    37 1   
     6     3    65 2   
     7     4    24 1   
     8     4    38 1   
     9     4    39 1   
    10     5    10 1   
    11     5    30 ar  
    12     5    34 ar  
    13     6    19 1   
    14     6    20 1   
    15     6    40 1   
    16     7     8 1   
    17     7    24 1   
    18     7    26 1   
    19     7    27 1   
    20     8     9 1   
    21     8    41 1   
    22     8    42 1   
    23     9    29 1   
    24     9    43 1   
    25     9    44 1   
    26    10    29 1   
    27    10    45 1   
    28    10    46 1   
    29    11    65 2   
    30    12    47 1   
    31    12    48 1   
    32    12    49 1   
    33    12    65 1   
    34    13    14 ar  
    35    13    16 ar  
    36    13    65 1   
    37    14    15 ar  
    38    14    50 1   
    39    15    18 ar  
    40    15    51 1   
    41    16    17 ar  
    42    16    52 1   
    43    17    18 ar  
    44    17    53 1   
    45    18    19 1   
    46    19    54 1   
    47    19    55 1   
    48    20    21 1   
    49    21    22 2   
    50    21    25 1   
    51    22    23 1   
    52    22    56 1   
    53    23    26 2   
    54    25    26 1   
    55    27    28 1   
    56    27    57 1   
    57    27    58 1   
    58    28    29 1   
    59    28    59 1   
    60    28    60 1   
    61    30    31 ar  
    62    30    61 1   
    63    31    32 ar  
    64    31    62 1   
    65    32    33 ar  
    66    32    63 1   
    67    33    34 ar  
    68    33    64 1   
    69    34    35 1   
@<TRIPOS>SUBSTRUCTURE
     1 WB7         1 TEMP              0 ****  ****    0 ROOT
