@<TRIPOS>MOLECULE
WB7
   65    69     1     0     0
SMALL
No Charge or Current Charge


@<TRIPOS>ATOM
      1 O1         -19.8190    11.3270    16.9690 o          1 WB7      -0.598100
      2 C7         -19.5090    13.4070    22.7430 c6         1 WB7      -0.046100
      3 O2         -24.5700    17.5590    13.6970 o          1 WB7      -0.524500
      4 C6         -18.3560    13.0730    23.7180 c6         1 WB7       0.162600
      5 C1         -12.0620    10.4050    23.4120 ca         1 WB7      -0.075300
      6 N1         -21.7050    12.0880    17.9900 ns         1 WB7      -0.499900
      7 C5         -16.7360    12.5600    21.9310 c6         1 WB7       0.256300
      8 C4         -15.5550    13.2560    21.2070 c6         1 WB7      -0.078400
      9 C3         -14.2770    13.2420    22.0770 c6         1 WB7       0.174800
     10 C2         -12.5970    11.8180    23.1810 c3         1 WB7       0.220100
     11 O3         -22.6200    16.8170    12.2130 o          1 WB7      -0.524500
     12 C18        -22.1220    18.1830    14.3940 c3         1 WB7      -0.334100
     13 C17        -23.0430    15.5250    14.5120 ca         1 WB7      -0.271500
     14 C16        -23.9040    15.2860    15.6040 ca         1 WB7      -0.012000
     15 C15        -23.7690    14.1110    16.3620 ca         1 WB7      -0.124000
     16 C19        -22.0450    14.5810    14.1920 ca         1 WB7      -0.012000
     17 C20        -21.9160    13.4080    14.9560 ca         1 WB7      -0.124000
     18 C14        -22.7770    13.1650    16.0430 ca         1 WB7      -0.042300
     19 C13        -22.6290    11.8960    16.8700 c3         1 WB7       0.137300
     20 C12        -20.3610    11.8040    17.9540 c          1 WB7       0.644700
     21 C10        -19.6450    12.1220    19.2010 cc         1 WB7      -0.312600
     22 C11        -20.1770    12.6580    20.3550 cd         1 WB7      -0.089000
     23 C8         -19.2050    12.8460    21.3740 cd         1 WB7      -0.106300
     24 O          -17.0760    13.3560    23.1020 os         1 WB7      -0.451000
     25 S          -17.9190    11.8320    19.3600 ss         1 WB7       0.346000
     26 C9         -17.9370    12.4680    21.0060 cc         1 WB7      -0.250300
     27 C21        -16.2880    11.1310    22.3430 c6         1 WB7      -0.078400
     28 C22        -14.9930    11.1680    23.1850 c6         1 WB7       0.174800
     29 N          -13.8900    11.8560    22.4550 n3         1 WB7      -0.720600
     30 C23        -12.1920     9.8130    24.6860 ca         1 WB7      -0.103000
     31 C24        -11.7100     8.5140    24.9210 ca         1 WB7      -0.112000
     32 C25        -11.0910     7.7950    23.8870 ca         1 WB7      -0.100000
     33 C26        -10.9540     8.3770    22.6160 ca         1 WB7      -0.109000
     34 C          -11.4350     9.6760    22.3750 ca         1 WB7       0.144000
     35 Cl         -11.2280    10.3610    20.7610 cl         1 WB7      -0.197000
     36 H1         -19.6320    14.4970    22.6830 hc         1 WB7       0.058700
     37 H2         -20.4520    13.0040    23.1340 hc         1 WB7       0.058700
     38 H3         -18.4560    13.6750    24.6320 h1         1 WB7       0.048200
     39 H4         -18.4010    12.0140    24.0090 h1         1 WB7       0.048200
     40 H5         -22.0600    12.4860    18.8470 hn         1 WB7       0.320500
     41 H6         -15.3360    12.7520    20.2570 hc         1 WB7       0.057950
     42 H7         -15.8250    14.2900    20.9580 hc         1 WB7       0.057950
     43 H8         -13.4650    13.7210    21.5100 h1         1 WB7       0.038200
     44 H9         -14.4430    13.8520    22.9770 h1         1 WB7       0.038200
     45 H10        -11.8390    12.3840    22.6220 h1         1 WB7       0.043200
     46 H11        -12.7010    12.3220    24.1510 h1         1 WB7       0.043200
     47 H12        -22.4800    18.2910    15.4230 h1         1 WB7       0.102700
     48 H13        -21.1080    17.7690    14.3790 h1         1 WB7       0.102700
     49 H14        -22.1570    19.1420    13.8670 h1         1 WB7       0.102700
     50 H15        -24.6770    16.0070    15.8700 ha         1 WB7       0.137000
     51 H16        -24.4360    13.9380    17.2030 ha         1 WB7       0.121500
     52 H17        -21.3670    14.7510    13.3570 ha         1 WB7       0.137000
     53 H18        -21.1410    12.6880    14.7030 ha         1 WB7       0.121500
     54 H19        -23.6090    11.6010    17.2700 h1         1 WB7       0.071200
     55 H20        -22.2760    11.0740    16.2330 h1         1 WB7       0.071200
     56 H21        -21.2230    12.9140    20.4930 ha         1 WB7       0.128000
     57 H22        -17.0810    10.6140    22.8970 hc         1 WB7       0.057950
     58 H23        -16.1050    10.5270    21.4450 hc         1 WB7       0.057950
     59 H24        -15.1940    11.6740    24.1410 h1         1 WB7       0.038200
     60 H25        -14.7120    10.1320    23.4220 h1         1 WB7       0.038200
     61 H27        -12.6730    10.3590    25.4940 ha         1 WB7       0.113000
     62 H28        -11.8180     8.0650    25.9070 ha         1 WB7       0.117000
     63 H29        -10.7170     6.7890    24.0690 ha         1 WB7       0.117000
     64 H30        -10.4720     7.8230    21.8140 ha         1 WB7       0.129000
     65 S1         -23.2050    17.0380    13.5420 sy         1 WB7       1.057500
@<TRIPOS>BOND
     1     1    20 2   
     2     2     4 1   
     3     2    23 1   
     4     2    36 1   
     5     2    37 1   
     6     3    65 2   
     7     4    24 1   
     8     4    38 1   
     9     4    39 1   
    10     5    10 1   
    11     5    30 ar  
    12     5    34 ar  
    13     6    19 1   
    14     6    20 1   
    15     6    40 1   
    16     7     8 1   
    17     7    24 1   
    18     7    26 1   
    19     7    27 1   
    20     8     9 1   
    21     8    41 1   
    22     8    42 1   
    23     9    29 1   
    24     9    43 1   
    25     9    44 1   
    26    10    29 1   
    27    10    45 1   
    28    10    46 1   
    29    11    65 2   
    30    12    47 1   
    31    12    48 1   
    32    12    49 1   
    33    12    65 1   
    34    13    14 ar  
    35    13    16 ar  
    36    13    65 1   
    37    14    15 ar  
    38    14    50 1   
    39    15    18 ar  
    40    15    51 1   
    41    16    17 ar  
    42    16    52 1   
    43    17    18 ar  
    44    17    53 1   
    45    18    19 1   
    46    19    54 1   
    47    19    55 1   
    48    20    21 1   
    49    21    22 2   
    50    21    25 1   
    51    22    23 1   
    52    22    56 1   
    53    23    26 2   
    54    25    26 1   
    55    27    28 1   
    56    27    57 1   
    57    27    58 1   
    58    28    29 1   
    59    28    59 1   
    60    28    60 1   
    61    30    31 ar  
    62    30    61 1   
    63    31    32 ar  
    64    31    62 1   
    65    32    33 ar  
    66    32    63 1   
    67    33    34 ar  
    68    33    64 1   
    69    34    35 1   
@<TRIPOS>SUBSTRUCTURE
     1 WB7         1 TEMP              0 ****  ****    0 ROOT
