@<TRIPOS>MOLECULE
WB9
   73    76     1     0     0
SMALL
abcg2


@<TRIPOS>ATOM
      1 C01        159.1300   172.7850   135.8610 c3         1 WB9      -0.078600
      2 C02        158.2430   173.9950   136.1450 cy         1 WB9      -0.059000
      3 C03        158.7420   175.2690   135.4140 cy         1 WB9      -0.068700
      4 C04        158.0510   176.5180   135.9570 c6         1 WB9      -0.065400
      5 C05        156.5210   176.4460   135.7620 c6         1 WB9      -0.069400
      6 C06        155.9600   175.0100   135.6860 c6         1 WB9      -0.051700
      7 C07        157.0360   174.0550   135.1650 cy         1 WB9      -0.057700
      8 C08        157.9700   174.7840   134.1710 cy         1 WB9      -0.089400
      9 C09        154.6310   174.9460   134.9220 c3         1 WB9      -0.071400
     10 C10        154.6460   175.2090   133.4280 c3         1 WB9       0.151600
     11 O11        155.2370   174.1140   132.7520 os         1 WB9      -0.425000
     12 C12        155.1510   174.1590   131.3580 c3         1 WB9       0.155600
     13 C13        156.2350   175.0930   130.8070 c3         1 WB9       0.045600
     14 N14        156.3380   175.1590   129.3050 n4         1 WB9      -0.503000
     15 C15        157.2700   176.2960   128.9520 c6         1 WB9       0.056600
     16 C16        156.5380   177.6150   128.8430 c6         1 WB9       0.140100
     17 O17        155.6030   177.6190   127.7860 os         1 WB9      -0.420000
     18 C18        155.0820   176.3440   127.4810 c6         1 WB9       0.140100
     19 C19        154.9810   175.4720   128.7130 c6         1 WB9       0.056600
     20 C20        156.9430   173.8410   128.8310 c3         1 WB9       0.162900
     21 C21        156.8740   173.5670   127.3570 ca         1 WB9      -0.105300
     22 C22        157.8980   174.0600   126.5390 ca         1 WB9      -0.192000
     23 C23        157.9040   173.8750   125.1650 ca         1 WB9       0.149100
     24 C24        156.8550   173.1480   124.5800 ca         1 WB9       0.122100
     25 C25        155.8710   172.5990   125.3800 ca         1 WB9      -0.076000
     26 C26        155.8800   172.7990   126.7550 ca         1 WB9      -0.028900
     27 BR1        154.5350   171.9090   127.7480 br         1 WB9      -0.069100
     28 O28        156.8160   172.9800   123.2390 os         1 WB9      -0.339100
     29 C29        157.4880   171.8150   122.7670 c3         1 WB9       0.146900
     30 O30        158.8430   174.3390   124.3340 os         1 WB9      -0.301100
     31 C31        159.9300   175.0650   124.8770 c3         1 WB9       0.137900
     32 C32        157.9980   174.0490   137.6460 c3         1 WB9      -0.078600
     33 H1         158.6460   171.8690   136.2090 hc         1 WB9       0.037867
     34 H2         159.3530   172.6510   134.8030 hc         1 WB9       0.037867
     35 H3         160.0830   172.8730   136.3870 hc         1 WB9       0.037867
     36 H4         159.8250   175.4110   135.3390 hc         1 WB9       0.067700
     37 H5         158.3090   176.6590   137.0090 hc         1 WB9       0.046200
     38 H6         156.0090   177.0020   136.5500 hc         1 WB9       0.033200
     39 H7         156.2740   176.9660   134.8340 hc         1 WB9       0.033200
     40 H8         155.7040   174.6860   136.7000 hc         1 WB9       0.063700
     41 H9         156.6100   173.0940   134.8640 hc         1 WB9       0.070700
     42 H10        157.5370   175.5490   133.5250 hc         1 WB9       0.029700
     43 H11        158.5400   174.1000   133.5440 hc         1 WB9       0.029700
     44 H12        154.1670   173.9700   135.0940 hc         1 WB9       0.060700
     45 H13        153.9510   175.6810   135.3640 hc         1 WB9       0.060700
     46 H14        153.6120   175.3390   133.0790 h1         1 WB9       0.024200
     47 H15        155.1690   176.1480   133.2050 h1         1 WB9       0.024200
     48 H16        155.2950   173.1360   131.0060 h1         1 WB9       0.063200
     49 H17        154.1530   174.4770   131.0340 h1         1 WB9       0.063200
     50 H18        156.0570   176.1130   131.1480 hx         1 WB9       0.096700
     51 H19        157.2140   174.7830   131.1750 hx         1 WB9       0.096700
     52 H20        158.0530   176.3390   129.7090 hx         1 WB9       0.104700
     53 H21        157.7360   176.0650   127.9990 hx         1 WB9       0.104700
     54 H22        156.0570   177.8790   129.7930 h1         1 WB9       0.085200
     55 H23        157.2860   178.3840   128.6440 h1         1 WB9       0.085200
     56 H24        154.0700   176.4750   127.0940 h1         1 WB9       0.085200
     57 H25        155.6650   175.8540   126.6950 h1         1 WB9       0.085200
     58 H26        154.4580   174.5450   128.5020 hx         1 WB9       0.104700
     59 H27        154.4100   176.0020   129.4750 hx         1 WB9       0.104700
     60 H28        157.9820   173.8760   129.1610 hx         1 WB9       0.100700
     61 H29        156.4590   173.0500   129.3950 hx         1 WB9       0.100700
     62 H30        158.7200   174.5800   127.0120 ha         1 WB9       0.118000
     63 H31        155.0920   172.0140   124.9080 ha         1 WB9       0.163000
     64 H32        157.3840   171.8060   121.6840 h1         1 WB9       0.050367
     65 H33        158.5500   171.8280   123.0210 h1         1 WB9       0.050367
     66 H34        157.0380   170.9060   123.1740 h1         1 WB9       0.050367
     67 H35        160.5610   175.3450   124.0370 h1         1 WB9       0.052700
     68 H36        159.5960   175.9720   125.3870 h1         1 WB9       0.052700
     69 H37        160.5160   174.4590   125.5720 h1         1 WB9       0.052700
     70 H38        157.4010   174.9000   137.9720 hc         1 WB9       0.037867
     71 H39        157.4830   173.1450   137.9810 hc         1 WB9       0.037867
     72 H40        158.9480   174.0990   138.1840 hc         1 WB9       0.037867
     73 H41        158.4330   177.3990   135.4350 hc         1 WB9       0.046200
@<TRIPOS>BOND
     1     1     2 1   
     2     1    33 1   
     3     1    34 1   
     4     1    35 1   
     5     2     3 1   
     6     2     7 1   
     7     2    32 1   
     8     3     4 1   
     9     3     8 1   
    10     3    36 1   
    11     4     5 1   
    12     4    37 1   
    13     4    73 1   
    14     5     6 1   
    15     5    38 1   
    16     5    39 1   
    17     6     7 1   
    18     6     9 1   
    19     6    40 1   
    20     7     8 1   
    21     7    41 1   
    22     8    42 1   
    23     8    43 1   
    24     9    10 1   
    25     9    44 1   
    26     9    45 1   
    27    10    11 1   
    28    10    46 1   
    29    10    47 1   
    30    11    12 1   
    31    12    13 1   
    32    12    48 1   
    33    12    49 1   
    34    13    14 1   
    35    13    50 1   
    36    13    51 1   
    37    14    15 1   
    38    14    19 1   
    39    14    20 1   
    40    15    16 1   
    41    15    52 1   
    42    15    53 1   
    43    16    17 1   
    44    16    54 1   
    45    16    55 1   
    46    17    18 1   
    47    18    19 1   
    48    18    56 1   
    49    18    57 1   
    50    19    58 1   
    51    19    59 1   
    52    20    21 1   
    53    20    60 1   
    54    20    61 1   
    55    21    22 ar  
    56    21    26 ar  
    57    22    23 ar  
    58    22    62 1   
    59    23    24 ar  
    60    23    30 1   
    61    24    25 ar  
    62    24    28 1   
    63    25    26 ar  
    64    25    63 1   
    65    26    27 1   
    66    28    29 1   
    67    29    64 1   
    68    29    65 1   
    69    29    66 1   
    70    30    31 1   
    71    31    67 1   
    72    31    68 1   
    73    31    69 1   
    74    32    70 1   
    75    32    71 1   
    76    32    72 1   
@<TRIPOS>SUBSTRUCTURE
     1 WB9         1 TEMP              0 ****  ****    0 ROOT
