@<TRIPOS>MOLECULE
WB9
   73    76     1     0     0
SMALL
No Charge or Current Charge


@<TRIPOS>ATOM
      1 C01        159.3960   173.0690   135.6660 c3         1 WB9      -0.078600
      2 C02        158.4270   174.2570   135.9350 cy         1 WB9      -0.059000
      3 C03        158.7060   175.5840   135.1160 cy         1 WB9      -0.068700
      4 C04        157.9690   176.8470   135.6760 c6         1 WB9      -0.065400
      5 C05        156.4200   176.6910   135.6570 c6         1 WB9      -0.069400
      6 C06        155.9560   175.1970   135.6870 c6         1 WB9      -0.051700
      7 C07        157.0660   174.2400   135.1160 cy         1 WB9      -0.057700
      8 C08        157.8860   174.9200   133.9490 cy         1 WB9      -0.089400
      9 C09        154.5310   175.0130   135.0640 c3         1 WB9      -0.071400
     10 C10        154.4040   175.1310   133.5270 c3         1 WB9       0.151600
     11 O11        154.8320   173.8860   132.9430 os         1 WB9      -0.425000
     12 C12        154.8180   173.8280   131.5040 c3         1 WB9       0.155600
     13 C13        155.9820   174.6910   130.9600 c3         1 WB9       0.045600
     14 N14        156.1670   174.8000   129.4340 n4         1 WB9      -0.503000
     15 C15        157.3680   175.7650   129.1510 c6         1 WB9       0.056600
     16 C16        156.9380   177.2520   129.1060 c6         1 WB9       0.140100
     17 O17        155.9760   177.5040   128.0410 os         1 WB9      -0.420000
     18 C18        155.1720   176.3670   127.6170 c6         1 WB9       0.140100
     19 C19        154.8710   175.4180   128.8020 c6         1 WB9       0.056600
     20 C20        156.4680   173.3900   128.8720 c3         1 WB9       0.162900
     21 C21        156.5690   173.2580   127.3540 ca         1 WB9      -0.105300
     22 C22        157.7840   173.5550   126.7080 ca         1 WB9      -0.192000
     23 C23        157.9110   173.4630   125.3000 ca         1 WB9       0.149100
     24 C24        156.7840   173.0390   124.5310 ca         1 WB9       0.122100
     25 C25        155.5890   172.7130   125.1920 ca         1 WB9      -0.076000
     26 C26        155.4760   172.8120   126.5860 ca         1 WB9      -0.028900
     27 Br1        153.8190   172.2900   127.4040 br         1 WB9      -0.069100
     28 O28        156.7570   172.9010   123.1470 os         1 WB9      -0.339100
     29 C29        157.8650   173.1880   122.2730 c3         1 WB9       0.146900
     30 O30        159.1120   173.7750   124.6830 os         1 WB9      -0.301100
     31 C31        160.2750   174.2220   125.4040 c3         1 WB9       0.137900
     32 C32        158.3630   174.3540   137.4850 c3         1 WB9      -0.078600
     33 H1         159.0190   172.1440   136.1180 hc         1 WB9       0.037867
     34 H2         159.5440   172.8620   134.6020 hc         1 WB9       0.037867
     35 H3         160.3880   173.2660   136.0910 hc         1 WB9       0.037867
     36 H4         159.7590   175.8050   134.9080 hc         1 WB9       0.067700
     37 H5         158.3190   177.0670   136.6930 hc         1 WB9       0.046200
     38 H6         155.9680   177.2510   136.4870 hc         1 WB9       0.033200
     39 H7         156.0480   177.1720   134.7430 hc         1 WB9       0.033200
     40 H8         155.8010   174.9240   136.7390 hc         1 WB9       0.063700
     41 H9         156.6580   173.2440   134.9090 hc         1 WB9       0.070700
     42 H10        157.3430   175.6090   133.2950 hc         1 WB9       0.029700
     43 H11        158.4470   174.2360   133.3040 hc         1 WB9       0.029700
     44 H12        154.1250   174.0390   135.3630 hc         1 WB9       0.060700
     45 H13        153.8570   175.7540   135.5100 hc         1 WB9       0.060700
     46 H14        153.3520   175.3170   133.2730 h1         1 WB9       0.024200
     47 H15        154.9940   175.9800   133.1630 h1         1 WB9       0.024200
     48 H16        154.9530   172.7910   131.1730 h1         1 WB9       0.063200
     49 H17        153.8600   174.1870   131.1050 h1         1 WB9       0.063200
     50 H18        155.8580   175.7060   131.3390 hx         1 WB9       0.096700
     51 H19        156.9120   174.2960   131.3750 hx         1 WB9       0.096700
     52 H20        158.1340   175.5810   129.9110 hx         1 WB9       0.104700
     53 H21        157.7810   175.4910   128.1790 hx         1 WB9       0.104700
     54 H22        156.4840   177.5260   130.0680 h1         1 WB9       0.085200
     55 H23        157.8150   177.8970   128.9550 h1         1 WB9       0.085200
     56 H24        154.2340   176.7350   127.1780 h1         1 WB9       0.085200
     57 H25        155.7130   175.8160   126.8350 h1         1 WB9       0.085200
     58 H26        154.2130   174.5970   128.5120 hx         1 WB9       0.104700
     59 H27        154.3690   175.9820   129.5940 hx         1 WB9       0.104700
     60 H28        157.4040   173.0560   129.3260 hx         1 WB9       0.100700
     61 H29        155.6870   172.7210   129.2350 hx         1 WB9       0.100700
     62 H30        158.6290   173.8530   127.3210 ha         1 WB9       0.118000
     63 H31        154.7370   172.3720   124.6090 ha         1 WB9       0.163000
     64 H32        157.5790   173.0080   121.2300 h1         1 WB9       0.050367
     65 H33        158.1710   174.2390   122.3590 h1         1 WB9       0.050367
     66 H34        158.7220   172.5430   122.5010 h1         1 WB9       0.050367
     67 H35        161.1010   174.4160   124.7090 h1         1 WB9       0.052700
     68 H36        160.0640   175.1520   125.9480 h1         1 WB9       0.052700
     69 H37        160.6080   173.4600   126.1200 h1         1 WB9       0.052700
     70 H38        157.7350   175.1750   137.8460 hc         1 WB9       0.037867
     71 H39        157.9600   173.4320   137.9210 hc         1 WB9       0.037867
     72 H40        159.3610   174.5150   137.9110 hc         1 WB9       0.037867
     73 H41        158.2450   177.7260   135.0780 hc         1 WB9       0.046200
@<TRIPOS>BOND
     1     1     2 1   
     2     1    33 1   
     3     1    34 1   
     4     1    35 1   
     5     2     3 1   
     6     2     7 1   
     7     2    32 1   
     8     3     4 1   
     9     3     8 1   
    10     3    36 1   
    11     4     5 1   
    12     4    37 1   
    13     4    73 1   
    14     5     6 1   
    15     5    38 1   
    16     5    39 1   
    17     6     7 1   
    18     6     9 1   
    19     6    40 1   
    20     7     8 1   
    21     7    41 1   
    22     8    42 1   
    23     8    43 1   
    24     9    10 1   
    25     9    44 1   
    26     9    45 1   
    27    10    11 1   
    28    10    46 1   
    29    10    47 1   
    30    11    12 1   
    31    12    13 1   
    32    12    48 1   
    33    12    49 1   
    34    13    14 1   
    35    13    50 1   
    36    13    51 1   
    37    14    15 1   
    38    14    19 1   
    39    14    20 1   
    40    15    16 1   
    41    15    52 1   
    42    15    53 1   
    43    16    17 1   
    44    16    54 1   
    45    16    55 1   
    46    17    18 1   
    47    18    19 1   
    48    18    56 1   
    49    18    57 1   
    50    19    58 1   
    51    19    59 1   
    52    20    21 1   
    53    20    60 1   
    54    20    61 1   
    55    21    22 ar  
    56    21    26 ar  
    57    22    23 ar  
    58    22    62 1   
    59    23    24 ar  
    60    23    30 1   
    61    24    25 ar  
    62    24    28 1   
    63    25    26 ar  
    64    25    63 1   
    65    26    27 1   
    66    28    29 1   
    67    29    64 1   
    68    29    65 1   
    69    29    66 1   
    70    30    31 1   
    71    31    67 1   
    72    31    68 1   
    73    31    69 1   
    74    32    70 1   
    75    32    71 1   
    76    32    72 1   
@<TRIPOS>SUBSTRUCTURE
     1 WB9         1 TEMP              0 ****  ****    0 ROOT
