@<TRIPOS>MOLECULE
WBA
   65    69     1     0     0
SMALL
abcg2


@<TRIPOS>ATOM
      1 C25         63.9060    28.9780     0.6310 ca         1 WBA      -0.194000
      2 C14         75.7990    35.9160     6.4290 ca         1 WBA      -0.102000
      3 C10         74.6330    37.9410     2.9270 ca         1 WBA      -0.094000
      4 C15         76.8130    32.6830    -0.5090 c          1 WBA       0.642700
      5 C22         67.1630    30.8290     0.1040 c          1 WBA       0.632700
      6 C21         69.4280    31.6980    -0.1210 c3         1 WBA       0.104000
      7 C20         70.8330    31.2740     0.2740 c3         1 WBA      -0.097400
      8 C2          74.2600    34.1610     0.2310 cc         1 WBA       0.393800
      9 C1          74.3770    32.7760    -0.3260 c3         1 WBA       0.092400
     10 C3          73.7710    36.2130     0.5320 cd         1 WBA       0.257900
     11 C8          75.3160    37.9960     5.2470 ca         1 WBA      -0.037000
     12 C11         75.6240    38.7030     6.4310 ca         1 WBA      -0.095000
     13 C4          74.4000    35.8100     1.6850 cc         1 WBA      -0.153000
     14 C9          74.9190    38.6500     4.0560 ca         1 WBA      -0.091000
     15 C13         76.0910    36.6270     7.5620 ca         1 WBA      -0.104000
     16 C17         78.2740    30.8190     0.5560 cc         1 WBA       0.301900
     17 C23         66.2170    29.7600     0.5250 ca         1 WBA      -0.321600
     18 C26         64.3180    27.8230     1.2590 ca         1 WBA      -0.017000
     19 C28         66.5640    28.5670     1.1650 ca         1 WBA       0.240000
     20 C27         65.6630    27.6000     1.5370 ca         1 WBA      -0.216000
     21 C24         64.8370    29.9520     0.2620 ca         1 WBA       0.253100
     22 O2          66.7150    31.8600    -0.4300 o          1 WBA      -0.657100
     23 F           67.8580    28.3260     1.4470 f          1 WBA      -0.190000
     24 O1          64.3820    31.0440    -0.3360 oh         1 WBA      -0.554100
     25 N4          68.4710    30.6890     0.2920 ns         1 WBA      -0.476900
     26 C19         71.8770    32.2860    -0.1790 c3         1 WBA      -0.070400
     27 C           73.2820    31.8480     0.2060 c3         1 WBA      -0.086400
     28 N2          75.6670    32.1960    -0.0040 ns         1 WBA      -0.514900
     29 O           76.8590    33.6650    -1.2340 o          1 WBA      -0.573100
     30 C16         78.0500    31.9690    -0.1440 cd         1 WBA      -0.338600
     31 S           79.5500    32.6190    -0.6680 ss         1 WBA       0.110600
     32 C18         80.3490    31.3120     0.0910 cd         1 WBA       0.390300
     33 N3          79.5760    30.4550     0.6850 nc         1 WBA      -0.636000
     34 N1          74.6930    34.4890     1.4650 na         1 WBA      -0.284500
     35 N           73.6920    35.1830    -0.3570 nd         1 WBA      -0.659000
     36 C5          74.7200    36.5230     2.9100 ca         1 WBA       0.008000
     37 C12         76.0040    38.0350     7.5640 ca         1 WBA      -0.107000
     38 C7          75.4060    36.5810     5.2430 ca         1 WBA      -0.030000
     39 C6          75.0990    35.8710     4.0610 ca         1 WBA      -0.107000
     40 H1          62.8590    29.1490     0.4180 ha         1 WBA       0.139000
     41 H2          75.8660    34.8350     6.4290 ha         1 WBA       0.111000
     42 H3          74.3460    38.4690     2.0260 ha         1 WBA       0.120000
     43 H4          69.1800    32.6560     0.3430 h1         1 WBA       0.060700
     44 H5          69.3710    31.8430    -1.2030 h1         1 WBA       0.060700
     45 H6          71.0560    30.2970    -0.1670 hc         1 WBA       0.043700
     46 H7          70.8870    31.1510     1.3600 hc         1 WBA       0.043700
     47 H8          74.2690    32.8580    -1.4110 h1         1 WBA       0.100700
     48 H9          73.3680    37.1880     0.3050 h4         1 WBA       0.040100
     49 H10         75.5560    39.7850     6.4290 ha         1 WBA       0.115000
     50 H11         74.8500    39.7310     4.0470 ha         1 WBA       0.117000
     51 H12         76.3920    36.1090     8.4630 ha         1 WBA       0.113000
     52 H14         63.5870    27.0770     1.5410 ha         1 WBA       0.121000
     53 H15         66.0010    26.6990     2.0290 ha         1 WBA       0.137000
     54 H16         65.1800    31.6200    -0.5140 ho         1 WBA       0.535000
     55 H17         68.8310    29.8470     0.7060 hn         1 WBA       0.335500
     56 H18         71.6510    33.2630     0.2560 hc         1 WBA       0.061200
     57 H19         71.8190    32.4090    -1.2650 hc         1 WBA       0.061200
     58 H20         73.4690    30.8470    -0.1950 hc         1 WBA       0.043700
     59 H21         73.3660    31.7730     1.2950 hc         1 WBA       0.043700
     60 H22         75.6810    31.3780     0.5850 hn         1 WBA       0.319500
     61 H23         81.4270    31.2290     0.0620 h5         1 WBA       0.056100
     62 H24         75.2060    33.8800     2.0850 hn         1 WBA       0.351000
     63 H26         76.2400    38.5840     8.4660 ha         1 WBA       0.115000
     64 H27         75.1560    34.7890     4.0960 ha         1 WBA       0.101000
     65 H13         77.5080    30.1940     0.9960 h4         1 WBA       0.035100
@<TRIPOS>BOND
     1     1    18 ar  
     2     1    21 ar  
     3     1    40 1   
     4     2    15 ar  
     5     2    38 ar  
     6     2    41 1   
     7     3    14 ar  
     8     3    36 ar  
     9     3    42 1   
    10     4    28 1   
    11     4    29 2   
    12     4    30 1   
    13     5    17 1   
    14     5    22 2   
    15     5    25 1   
    16     6     7 1   
    17     6    25 1   
    18     6    43 1   
    19     6    44 1   
    20     7    26 1   
    21     7    45 1   
    22     7    46 1   
    23     8     9 1   
    24     8    34 1   
    25     8    35 2   
    26     9    27 1   
    27     9    28 1   
    28     9    47 1   
    29    10    13 2   
    30    10    35 1   
    31    10    48 1   
    32    11    12 ar  
    33    11    14 ar  
    34    11    38 ar  
    35    12    37 ar  
    36    12    49 1   
    37    13    34 1   
    38    13    36 1   
    39    14    50 1   
    40    15    37 ar  
    41    15    51 1   
    42    16    30 2   
    43    16    33 1   
    44    16    65 1   
    45    17    19 ar  
    46    17    21 ar  
    47    18    20 ar  
    48    18    52 1   
    49    19    20 ar  
    50    19    23 1   
    51    20    53 1   
    52    21    24 1   
    53    24    54 1   
    54    25    55 1   
    55    26    27 1   
    56    26    56 1   
    57    26    57 1   
    58    27    58 1   
    59    27    59 1   
    60    28    60 1   
    61    30    31 1   
    62    31    32 1   
    63    32    33 2   
    64    32    61 1   
    65    34    62 1   
    66    36    39 ar  
    67    37    63 1   
    68    38    39 ar  
    69    39    64 1   
@<TRIPOS>SUBSTRUCTURE
     1 WBA         1 TEMP              0 ****  ****    0 ROOT
