@<TRIPOS>MOLECULE
WBA
   65    69     1     0     0
SMALL
No Charge or Current Charge


@<TRIPOS>ATOM
      1 C25         63.8820    28.9450     0.7720 ca         1 WBA      -0.194000
      2 C14         75.9710    36.0700     6.4690 ca         1 WBA      -0.102000
      3 C10         74.3440    37.9480     3.0600 ca         1 WBA      -0.094000
      4 C15         76.9730    32.5730    -0.7670 c          1 WBA       0.642700
      5 C22         67.0810    30.9210     0.0420 c          1 WBA       0.632700
      6 C21         69.4360    31.7570    -0.1920 c3         1 WBA       0.104000
      7 C20         70.8610    31.2830     0.1490 c3         1 WBA      -0.097400
      8 C2          74.3730    34.1760     0.2620 cc         1 WBA       0.393800
      9 C1          74.4950    32.8000    -0.3740 c3         1 WBA       0.092400
     10 C3          73.9590    36.2780     0.6000 cd         1 WBA       0.257900
     11 C8          75.0910    38.0650     5.3770 ca         1 WBA      -0.037000
     12 C11         75.2990    38.8010     6.5590 ca         1 WBA      -0.095000
     13 C4          74.4690    35.7880     1.7780 cc         1 WBA      -0.153000
     14 C9          74.5490    38.6860     4.2380 ca         1 WBA      -0.091000
     15 C13         76.1770    36.8070     7.6480 ca         1 WBA      -0.104000
     16 C17         78.1840    30.7600     0.5160 cc         1 WBA       0.301900
     17 C23         66.1640    29.8140     0.5160 ca         1 WBA      -0.321600
     18 C26         64.3660    27.7820     1.3800 ca         1 WBA      -0.017000
     19 C28         66.6360    28.6270     1.1350 ca         1 WBA       0.240000
     20 C27         65.7460    27.6290     1.5590 ca         1 WBA      -0.216000
     21 C24         64.7650    29.9460     0.3460 ca         1 WBA       0.253100
     22 O2          66.6330    31.9310    -0.4880 o          1 WBA      -0.657100
     23 F           67.9510    28.4020     1.3450 f          1 WBA      -0.190000
     24 O1          64.2390    31.0540    -0.2370 oh         1 WBA      -0.554100
     25 N4          68.4330    30.7740     0.2150 ns         1 WBA      -0.476900
     26 C19         71.9470    32.3000    -0.2670 c3         1 WBA      -0.070400
     27 C           73.3790    31.8260     0.0790 c3         1 WBA      -0.086400
     28 N2          75.8120    32.1780    -0.1450 ns         1 WBA      -0.514900
     29 O           77.0040    33.4900    -1.5700 o          1 WBA      -0.573100
     30 C16         78.1650    31.7990    -0.3810 cd         1 WBA      -0.338600
     31 S           79.7680    32.1030    -1.0280 ss         1 WBA       0.110600
     32 C18         80.3370    30.7810    -0.0160 cd         1 WBA       0.390300
     33 N3          79.4100    30.1800     0.7270 nc         1 WBA      -0.636000
     34 N1          74.7310    34.4550     1.5600 na         1 WBA      -0.284500
     35 N           73.9020    35.2630    -0.3380 nd         1 WBA      -0.659000
     36 C5          74.6770    36.5770     3.0000 ca         1 WBA       0.008000
     37 C12         75.8410    38.1710     7.6930 ca         1 WBA      -0.107000
     38 C7          75.4280    36.6960     5.3300 ca         1 WBA      -0.030000
     39 C6          75.2200    35.9620     4.1480 ca         1 WBA      -0.107000
     40 H1          62.8120    29.0740     0.6280 ha         1 WBA       0.139000
     41 H2          76.2340    35.0150     6.4420 ha         1 WBA       0.111000
     42 H3          73.9230    38.4580     2.1980 ha         1 WBA       0.120000
     43 H4          69.2290    32.7070     0.3200 h1         1 WBA       0.060700
     44 H5          69.3500    31.9230    -1.2740 h1         1 WBA       0.060700
     45 H6          71.0510    30.3260    -0.3530 hc         1 WBA       0.043700
     46 H7          70.9310    31.1020     1.2290 hc         1 WBA       0.043700
     47 H8          74.3850    32.9400    -1.4580 h1         1 WBA       0.100700
     48 H9          73.6310    37.2820     0.3630 h4         1 WBA       0.040100
     49 H10         75.0410    39.8570     6.6010 ha         1 WBA       0.115000
     50 H11         74.2860    39.7410     4.2640 ha         1 WBA       0.117000
     51 H12         76.5970    36.3220     8.5260 ha         1 WBA       0.113000
     52 H14         63.6780    27.0050     1.7100 ha         1 WBA       0.121000
     53 H15         66.1330    26.7290     2.0300 ha         1 WBA       0.137000
     54 H16         65.0280    31.6230    -0.4580 ho         1 WBA       0.535000
     55 H17         68.7420    29.9180     0.6590 hn         1 WBA       0.335500
     56 H18         71.7460    33.2570     0.2320 hc         1 WBA       0.061200
     57 H19         71.8770    32.4820    -1.3470 hc         1 WBA       0.061200
     58 H20         73.5490    30.8520    -0.3970 hc         1 WBA       0.043700
     59 H21         73.4550    31.6660     1.1620 hc         1 WBA       0.043700
     60 H22         75.8730    31.3960     0.4940 hn         1 WBA       0.319500
     61 H23         81.3850    30.5110    -0.0320 h5         1 WBA       0.056100
     62 H24         75.1170    33.7890     2.2170 hn         1 WBA       0.351000
     63 H26         76.0010    38.7410     8.6060 ha         1 WBA       0.115000
     64 H27         75.4840    34.9080     4.1270 ha         1 WBA       0.101000
     65 H13         77.3410    30.3600     1.0640 h4         1 WBA       0.035100
@<TRIPOS>BOND
     1     1    18 ar  
     2     1    21 ar  
     3     1    40 1   
     4     2    15 ar  
     5     2    38 ar  
     6     2    41 1   
     7     3    14 ar  
     8     3    36 ar  
     9     3    42 1   
    10     4    28 1   
    11     4    29 2   
    12     4    30 1   
    13     5    17 1   
    14     5    22 2   
    15     5    25 1   
    16     6     7 1   
    17     6    25 1   
    18     6    43 1   
    19     6    44 1   
    20     7    26 1   
    21     7    45 1   
    22     7    46 1   
    23     8     9 1   
    24     8    34 1   
    25     8    35 2   
    26     9    27 1   
    27     9    28 1   
    28     9    47 1   
    29    10    13 2   
    30    10    35 1   
    31    10    48 1   
    32    11    12 ar  
    33    11    14 ar  
    34    11    38 ar  
    35    12    37 ar  
    36    12    49 1   
    37    13    34 1   
    38    13    36 1   
    39    14    50 1   
    40    15    37 ar  
    41    15    51 1   
    42    16    30 2   
    43    16    33 1   
    44    16    65 1   
    45    17    19 ar  
    46    17    21 ar  
    47    18    20 ar  
    48    18    52 1   
    49    19    20 ar  
    50    19    23 1   
    51    20    53 1   
    52    21    24 1   
    53    24    54 1   
    54    25    55 1   
    55    26    27 1   
    56    26    56 1   
    57    26    57 1   
    58    27    58 1   
    59    27    59 1   
    60    28    60 1   
    61    30    31 1   
    62    31    32 1   
    63    32    33 2   
    64    32    61 1   
    65    34    62 1   
    66    36    39 ar  
    67    37    63 1   
    68    38    39 ar  
    69    39    64 1   
@<TRIPOS>SUBSTRUCTURE
     1 WBA         1 TEMP              0 ****  ****    0 ROOT
