@<TRIPOS>MOLECULE
WBB
   26    26     1     0     0
SMALL
No Charge or Current Charge


@<TRIPOS>ATOM
      1 C7          25.5630    15.4700    37.8670 c3         1 WBB      -0.116100
      2 C8          24.9230    16.7090    37.2260 c          1 WBB       0.606100
      3 C9          25.3830    18.9480    34.9610 c3         1 WBB       0.115900
      4 O1          24.4310    17.8890    35.1560 os         1 WBB      -0.222100
      5 C1          27.1220    16.1270    39.8290 ca         1 WBB      -0.066300
      6 C5          28.0560    15.7900    37.5970 ca         1 WBB      -0.106000
      7 C6          26.9390    15.8030    38.4590 ca         1 WBB      -0.101300
      8 C4          29.3390    16.0900    38.0800 ca         1 WBB      -0.113000
      9 C3          29.5200    16.4080    39.4330 ca         1 WBB      -0.101000
     10 C2          28.4170    16.4250    40.3020 ca         1 WBB      -0.111000
     11 O           24.3740    17.5820    37.8870 o          1 WBB      -0.584100
     12 N           25.0210    16.7710    35.8440 ns         1 WBB      -0.394400
     13 H1          24.8850    15.0860    38.6350 hc         1 WBB       0.081200
     14 H2          25.6900    14.6950    37.1030 hc         1 WBB       0.081200
     15 H3          24.9140    19.7880    34.4340 h1         1 WBB       0.044367
     16 H4          25.7600    19.3170    35.9240 h1         1 WBB       0.044367
     17 H5          26.2350    18.6010    34.3640 h1         1 WBB       0.044367
     18 H6          27.9310    15.5450    36.5440 ha         1 WBB       0.115000
     19 H7          30.1920    16.0770    37.4050 ha         1 WBB       0.118000
     20 H8          30.5140    16.6410    39.8100 ha         1 WBB       0.116000
     21 H9          28.5720    16.6730    41.3490 ha         1 WBB       0.114000
     22 H10         25.4500    16.0450    35.2770 hn         1 WBB       0.346500
     23 H11         25.5340    15.1600    40.9590 hc         1 WBB       0.047367
     24 H12         26.2670    16.5280    41.8000 hc         1 WBB       0.047367
     25 H13         25.1560    16.8220    40.4640 hc         1 WBB       0.047367
     26 C           25.9570    16.1610    40.8140 c3         1 WBB      -0.052800
@<TRIPOS>BOND
     1     1     2 1   
     2     1     7 1   
     3     1    13 1   
     4     1    14 1   
     5     2    11 2   
     6     2    12 1   
     7     3     4 1   
     8     3    15 1   
     9     3    16 1   
    10     3    17 1   
    11     4    12 1   
    12     5     7 ar  
    13     5    10 ar  
    14     5    26 1   
    15     6     7 ar  
    16     6     8 ar  
    17     6    18 1   
    18     8     9 ar  
    19     8    19 1   
    20     9    10 ar  
    21     9    20 1   
    22    10    21 1   
    23    12    22 1   
    24    23    26 1   
    25    24    26 1   
    26    25    26 1   
@<TRIPOS>SUBSTRUCTURE
     1 WBB         1 TEMP              0 ****  ****    0 ROOT
