@<TRIPOS>MOLECULE
WBB
   26    26     1     0     0
SMALL
abcg2


@<TRIPOS>ATOM
      1 C7          25.5850    15.1480    37.8490 c3         1 WBB      -0.116100
      2 C8          24.8330    16.1880    37.0220 c          1 WBB       0.606100
      3 C9          24.8320    19.2890    36.2350 c3         1 WBB       0.115900
      4 O1          25.0850    18.0410    35.5630 os         1 WBB      -0.222100
      5 C1          27.2620    16.3900    39.2850 ca         1 WBB      -0.066300
      6 C5          28.0640    14.9000    37.5570 ca         1 WBB      -0.106000
      7 C6          27.0000    15.4820    38.2430 ca         1 WBB      -0.101300
      8 C4          29.3830    15.2020    37.8790 ca         1 WBB      -0.113000
      9 C3          29.6450    16.0980    38.9080 ca         1 WBB      -0.101000
     10 C2          28.5890    16.6810    39.6010 ca         1 WBB      -0.111000
     11 O           23.6140    16.1540    36.8950 o          1 WBB      -0.584100
     12 N           25.6160    17.1180    36.4400 ns         1 WBB      -0.394400
     13 H1          24.9600    14.9670    38.7250 hc         1 WBB       0.081200
     14 H2          25.5690    14.2300    37.2560 hc         1 WBB       0.081200
     15 H3          24.4170    19.9460    35.4730 h1         1 WBB       0.044367
     16 H4          24.1150    19.1460    37.0440 h1         1 WBB       0.044367
     17 H5          25.7630    19.7060    36.6240 h1         1 WBB       0.044367
     18 H6          27.8520    14.2000    36.7560 ha         1 WBB       0.115000
     19 H7          30.1950    14.7390    37.3330 ha         1 WBB       0.118000
     20 H8          30.6660    16.3430    39.1730 ha         1 WBB       0.116000
     21 H9          28.7950    17.3800    40.4030 ha         1 WBB       0.114000
     22 H10         26.6250    17.1010    36.4880 hn         1 WBB       0.346500
     23 H11         25.4970    16.3070    40.5270 hc         1 WBB       0.047367
     24 H12         26.5350    17.7080    40.8170 hc         1 WBB       0.047367
     25 H13         25.5060    17.6400    39.3830 hc         1 WBB       0.047367
     26 C           26.1420    17.0470    40.0450 c3         1 WBB      -0.052800
@<TRIPOS>BOND
     1     1     2 1   
     2     1     7 1   
     3     1    13 1   
     4     1    14 1   
     5     2    11 2   
     6     2    12 1   
     7     3     4 1   
     8     3    15 1   
     9     3    16 1   
    10     3    17 1   
    11     4    12 1   
    12     5     7 ar  
    13     5    10 ar  
    14     5    26 1   
    15     6     7 ar  
    16     6     8 ar  
    17     6    18 1   
    18     8     9 ar  
    19     8    19 1   
    20     9    10 ar  
    21     9    20 1   
    22    10    21 1   
    23    12    22 1   
    24    23    26 1   
    25    24    26 1   
    26    25    26 1   
@<TRIPOS>SUBSTRUCTURE
     1 WBB         1 TEMP              0 ****  ****    0 ROOT
