@<TRIPOS>MOLECULE
WBD
   15    16     1     0     0
SMALL
No Charge or Current Charge


@<TRIPOS>ATOM
      1 C1          64.3590    32.7730   -37.4870 ca         1 WBD       0.074400
      2 C2          63.3150    34.6540   -37.3950 cc         1 WBD       0.458800
      3 C3          65.2440    31.7240   -37.7740 ca         1 WBD      -0.037000
      4 C4          65.0370    30.4830   -37.1330 ca         1 WBD       0.097000
      5 C5          63.9630    30.3090   -36.2270 ca         1 WBD      -0.083000
      6 N1          62.6570    33.7750   -36.5430 na         1 WBD      -0.311600
      7 C6          63.0850    31.3790   -35.9530 ca         1 WBD      -0.104000
      8 Cl1         66.1230    29.1390   -37.4640 cl         1 WBD      -0.201000
      9 C           63.3260    32.5920   -36.6100 ca         1 WBD      -0.075200
     10 Cl          62.8150    36.2990   -37.6390 cl         1 WBD      -0.047300
     11 N           64.3710    34.0700   -37.9960 nd         1 WBD      -0.548100
     12 H1          66.0650    31.8630   -38.4700 ha         1 WBD       0.148000
     13 H2          63.8150    29.3480   -35.7410 ha         1 WBD       0.132000
     14 H3          61.8400    33.9920   -35.9870 hn         1 WBD       0.370000
     15 H4          62.2540    31.2640   -35.2600 ha         1 WBD       0.125000
@<TRIPOS>BOND
     1     1     3 ar  
     2     1     9 ar  
     3     1    11 1   
     4     2     6 1   
     5     2    10 1   
     6     2    11 2   
     7     3     4 ar  
     8     3    12 1   
     9     4     5 ar  
    10     4     8 1   
    11     5     7 ar  
    12     5    13 1   
    13     6     9 1   
    14     6    14 1   
    15     7     9 ar  
    16     7    15 1   
@<TRIPOS>SUBSTRUCTURE
     1 WBD         1 TEMP              0 ****  ****    0 ROOT
