@<TRIPOS>MOLECULE
WBD
   15    16     1     0     0
SMALL
bcc


@<TRIPOS>ATOM
      1 C1          64.3680    32.7720   -37.4930 ca         1 WBD       0.074400
      2 C2          63.3380    34.6040   -37.3920 cc         1 WBD       0.458800
      3 C3          65.2470    31.7290   -37.7780 ca         1 WBD      -0.055000
      4 C4          65.0170    30.5290   -37.1360 ca         1 WBD       0.005400
      5 C5          63.9600    30.3390   -36.2360 ca         1 WBD      -0.101000
      6 N1          62.6630    33.7890   -36.5510 na         1 WBD      -0.261300
      7 C6          63.0860    31.3710   -35.9500 ca         1 WBD      -0.122000
      8 CL1         66.0780    29.1910   -37.4530 cl         1 WBD      -0.109400
      9 C           63.3090    32.5810   -36.5920 ca         1 WBD      -0.075200
     10 CL          62.8390    36.2100   -37.6230 cl         1 WBD      -0.047300
     11 N           64.3550    34.0590   -37.9770 nd         1 WBD      -0.548100
     12 H1          66.0670    31.8590   -38.4710 ha         1 WBD       0.166000
     13 H2          63.8280    29.3770   -35.7600 ha         1 WBD       0.150000
     14 H3          61.8440    34.0260   -36.0130 hn         1 WBD       0.319700
     15 H4          62.2690    31.2300   -35.2550 ha         1 WBD       0.143000
@<TRIPOS>BOND
     1     1     3 ar  
     2     1     9 ar  
     3     1    11 1   
     4     2     6 1   
     5     2    10 1   
     6     2    11 2   
     7     3     4 ar  
     8     3    12 1   
     9     4     5 ar  
    10     4     8 1   
    11     5     7 ar  
    12     5    13 1   
    13     6     9 1   
    14     6    14 1   
    15     7     9 ar  
    16     7    15 1   
@<TRIPOS>SUBSTRUCTURE
     1 WBD         1 TEMP              0 ****  ****    0 ROOT
