@<TRIPOS>MOLECULE
WBF
   22    22     1     0     0
SMALL
No Charge or Current Charge


@<TRIPOS>ATOM
      1 N1          29.8630    14.9510    43.3210 n8         1 WBF      -0.714200
      2 C7          27.7150    15.6480    42.1540 c          1 WBF       0.620100
      3 C1          27.4790    15.1720    37.6050 ca         1 WBF      -0.128000
      4 C5          29.5770    16.3630    37.3160 ca         1 WBF      -0.154000
      5 C6          26.8610    16.8650    41.7810 c3         1 WBF      -0.045400
      6 C4          29.2760    17.1580    38.4330 ca         1 WBF       0.200000
      7 C3          28.0790    16.9630    39.1530 ca         1 WBF      -0.163000
      8 C2          27.1760    15.9670    38.7260 ca         1 WBF      -0.045000
      9 O           27.3810    14.5010    41.8800 o          1 WBF      -0.570100
     10 N           28.8970    15.9420    42.8430 ns         1 WBF      -0.411300
     11 S           27.7120    17.9960    40.5760 ss         1 WBF      -0.183000
     12 C           28.6790    15.3660    36.9000 ca         1 WBF      -0.060000
     13 H1          30.7930    15.0950    42.8990 hn         1 WBF       0.399000
     14 H2          29.9930    15.0110    44.3430 hn         1 WBF       0.399000
     15 H3          26.7790    14.4050    37.2810 ha         1 WBF       0.125000
     16 H4          30.5060    16.5230    36.7740 ha         1 WBF       0.136000
     17 H5          26.6450    17.4210    42.7000 h1         1 WBF       0.099700
     18 H6          25.9120    16.5120    41.3630 h1         1 WBF       0.099700
     19 H7          26.2360    15.8070    39.2460 ha         1 WBF       0.128000
     20 H8          29.0820    16.9340    43.0020 hn         1 WBF       0.323500
     21 H9          28.9090    14.7500    36.0340 ha         1 WBF       0.123000
     22 F           30.1530    18.1120    38.8180 f          1 WBF      -0.179000
@<TRIPOS>BOND
     1     1    10 1   
     2     1    13 1   
     3     1    14 1   
     4     2     5 1   
     5     2     9 2   
     6     2    10 1   
     7     3     8 ar  
     8     3    12 ar  
     9     3    15 1   
    10     4     6 ar  
    11     4    12 ar  
    12     4    16 1   
    13     5    11 1   
    14     5    17 1   
    15     5    18 1   
    16     6     7 ar  
    17     6    22 1   
    18     7     8 ar  
    19     7    11 1   
    20     8    19 1   
    21    10    20 1   
    22    12    21 1   
@<TRIPOS>SUBSTRUCTURE
     1 WBF         1 TEMP              0 ****  ****    0 ROOT
