@<TRIPOS>MOLECULE
WBF
   22    22     1     0     0
SMALL
abcg2


@<TRIPOS>ATOM
      1 N1          30.0600    15.2040    42.8360 n8         1 WBF      -0.714200
      2 C7          27.7480    15.6120    42.3340 c          1 WBF       0.620100
      3 C1          27.4200    15.4760    37.4400 ca         1 WBF      -0.128000
      4 C5          29.7010    16.0870    37.9260 ca         1 WBF      -0.154000
      5 C6          26.7370    16.6250    41.8040 c3         1 WBF      -0.045400
      6 C4          29.2410    16.8410    38.9900 ca         1 WBF       0.200000
      7 C3          27.8910    16.9410    39.3100 ca         1 WBF      -0.163000
      8 C2          26.9820    16.2470    38.5070 ca         1 WBF      -0.045000
      9 O           27.3520    14.5140    42.7130 o          1 WBF      -0.570100
     10 N           29.0240    16.0290    42.3740 ns         1 WBF      -0.411300
     11 S           27.3490    17.9300    40.6870 ss         1 WBF      -0.183000
     12 C           28.7800    15.3970    37.1480 ca         1 WBF      -0.060000
     13 H1          30.7580    15.1240    42.1020 hn         1 WBF       0.399000
     14 H2          30.5000    15.6500    43.6340 hn         1 WBF       0.399000
     15 H3          26.7010    14.9430    36.8310 ha         1 WBF       0.125000
     16 H4          30.7640    16.0430    37.7240 ha         1 WBF       0.136000
     17 H5          26.3080    17.1600    42.6550 h1         1 WBF       0.099700
     18 H6          25.9370    16.0670    41.3220 h1         1 WBF       0.099700
     19 H7          25.9260    16.3190    38.7310 ha         1 WBF       0.128000
     20 H8          29.2420    16.9540    42.0250 hn         1 WBF       0.323500
     21 H9          29.1260    14.8010    36.3130 ha         1 WBF       0.123000
     22 F           30.1540    17.4980    39.7430 f          1 WBF      -0.179000
@<TRIPOS>BOND
     1     1    10 1   
     2     1    13 1   
     3     1    14 1   
     4     2     5 1   
     5     2     9 2   
     6     2    10 1   
     7     3     8 ar  
     8     3    12 ar  
     9     3    15 1   
    10     4     6 ar  
    11     4    12 ar  
    12     4    16 1   
    13     5    11 1   
    14     5    17 1   
    15     5    18 1   
    16     6     7 ar  
    17     6    22 1   
    18     7     8 ar  
    19     7    11 1   
    20     8    19 1   
    21    10    20 1   
    22    12    21 1   
@<TRIPOS>SUBSTRUCTURE
     1 WBF         1 TEMP              0 ****  ****    0 ROOT
