@<TRIPOS>MOLECULE
WBG
   64    69     1     0     0
SMALL
abcg2


@<TRIPOS>ATOM
      1 C17         -7.8610     8.1710   -47.8170 ca         1 WBG      -0.194000
      2 C21         -3.0030     5.4580   -44.9560 cc         1 WBG       0.242000
      3 C22         -3.2790     5.1950   -43.6350 cd         1 WBG      -0.200800
      4 C24         -5.1300     6.6450   -42.9890 c2         1 WBG      -0.236200
      5 C26         -7.3090     5.6860   -42.1910 c6         1 WBG      -0.074400
      6 C28         -5.2800     4.2340   -42.3950 c6         1 WBG      -0.039200
      7 C02         -1.1290     5.1070   -46.4860 c          1 WBG       0.582000
      8 C03         -1.9650     5.6890   -47.4920 cc         1 WBG      -0.345400
      9 C04         -1.4280     5.8070   -48.8660 ca         1 WBG      -0.061800
     10 C05         -0.5290     6.8210   -49.2060 ca         1 WBG      -0.059500
     11 C06         -0.0290     6.9360   -50.4880 ca         1 WBG      -0.177500
     12 C07         -0.4210     6.0320   -51.4800 ca         1 WBG       0.145100
     13 C08         -1.3160     5.0150   -51.1590 ca         1 WBG      -0.177500
     14 C09         -1.8040     4.9120   -49.8610 ca         1 WBG      -0.059500
     15 C11         -0.2420     5.3260   -53.7370 c3         1 WBG       0.148900
     16 C12         -3.2450     6.1250   -47.1930 cd         1 WBG       0.447000
     17 C14         -5.3270     7.1860   -48.0360 ca         1 WBG       0.611900
     18 C16         -7.1620     7.6500   -46.7480 ca         1 WBG       0.392900
     19 C18         -7.2310     8.1850   -49.0600 ca         1 WBG      -0.029000
     20 C19         -5.9510     7.6900   -49.1830 ca         1 WBG      -0.204000
     21 C23         -4.5720     5.4290   -42.9790 cf         1 WBG      -0.012400
     22 C25         -6.4980     6.9480   -42.4610 c6         1 WBG      -0.036200
     23 C27         -6.4480     4.6340   -41.5040 c6         1 WBG      -0.072400
     24 C29         -2.0770     4.5890   -43.1800 cd         1 WBG       0.343500
     25 C30         -1.7680     4.1180   -41.8260 ca         1 WBG      -0.124500
     26 C31         -2.3180     4.7520   -40.7110 ca         1 WBG      -0.085000
     27 C32         -2.0110     4.3170   -39.4310 ca         1 WBG      -0.120000
     28 C33         -1.1510     3.2440   -39.2450 ca         1 WBG      -0.105000
     29 C34         -0.5960     2.6090   -40.3490 ca         1 WBG      -0.120000
     30 C35         -0.9000     3.0430   -41.6300 ca         1 WBG      -0.085000
     31 N13         -4.0390     6.6910   -48.1460 nu         1 WBG      -0.814900
     32 N15         -5.9240     7.1700   -46.8530 nb         1 WBG      -0.764000
     33 N20         -3.7450     6.0060   -45.9460 na         1 WBG      -0.805000
     34 N36         -1.1690     4.4960   -44.1360 nc         1 WBG      -0.471800
     35 N37         -1.7470     5.0270   -45.2210 n          1 WBG       0.136000
     36 O10          0.1110     6.2200   -52.7000 os         1 WBG      -0.340100
     37 H171        -8.8630     8.5510   -47.6860 ha         1 WBG       0.135000
     38 H241        -4.5690     7.4790   -43.3990 ha         1 WBG       0.173000
     39 H262        -8.1850     5.9280   -41.5850 hc         1 WBG       0.037700
     40 H261        -7.6850     5.2830   -43.1360 hc         1 WBG       0.037700
     41 H282        -5.6310     3.6030   -43.2190 hc         1 WBG       0.055200
     42 H281        -4.5710     3.6170   -41.8370 hc         1 WBG       0.055200
     43 H051        -0.2230     7.5350   -48.4520 ha         1 WBG       0.118000
     44 H061         0.6650     7.7290   -50.7350 ha         1 WBG       0.123000
     45 H081        -1.6430     4.2950   -51.8970 ha         1 WBG       0.123000
     46 H091        -2.4950     4.1120   -49.6250 ha         1 WBG       0.118000
     47 H112         0.2900     5.6580   -54.6250 h1         1 WBG       0.040700
     48 H113         0.0580     4.2990   -53.5110 h1         1 WBG       0.040700
     49 H111        -1.3150     5.3420   -53.9430 h1         1 WBG       0.040700
     50 H161        -7.6010     7.6120   -45.7580 h4         1 WBG       0.029100
     51 H181        -7.7390     8.5820   -49.9280 ha         1 WBG       0.127000
     52 H191        -5.4400     7.6870   -50.1370 ha         1 WBG       0.133000
     53 H251        -6.4050     7.5420   -41.5450 hc         1 WBG       0.041200
     54 H252        -7.0220     7.5940   -43.1720 hc         1 WBG       0.041200
     55 H271        -7.0420     3.7520   -41.2530 hc         1 WBG       0.042200
     56 H272        -6.0660     5.0340   -40.5590 hc         1 WBG       0.042200
     57 H311        -2.9810     5.5990   -40.8430 ha         1 WBG       0.125500
     58 H321        -2.4420     4.8220   -38.5760 ha         1 WBG       0.111500
     59 H331        -0.9150     2.9030   -38.2450 ha         1 WBG       0.110000
     60 H341         0.0730     1.7690   -40.2120 ha         1 WBG       0.111500
     61 H351        -0.4710     2.5380   -42.4850 ha         1 WBG       0.125500
     62 H131        -3.6180     6.7570   -49.0620 hn         1 WBG       0.532000
     63 H201        -4.6930     6.3620   -45.7760 hn         1 WBG       0.577000
     64 O01          0.0060     4.6940   -46.6340 o          1 WBG      -0.479000
@<TRIPOS>BOND
     1     1    18 ar  
     2     1    19 ar  
     3     1    37 1   
     4     2     3 2   
     5     2    33 1   
     6     2    35 1   
     7     3    21 1   
     8     3    24 1   
     9     4    21 2   
    10     4    22 1   
    11     4    38 1   
    12     5    22 1   
    13     5    23 1   
    14     5    39 1   
    15     5    40 1   
    16     6    21 1   
    17     6    23 1   
    18     6    41 1   
    19     6    42 1   
    20     7     8 1   
    21     7    35 1   
    22     7    64 2   
    23     8     9 1   
    24     8    16 2   
    25     9    10 ar  
    26     9    14 ar  
    27    10    11 ar  
    28    10    43 1   
    29    11    12 ar  
    30    11    44 1   
    31    12    13 ar  
    32    12    36 1   
    33    13    14 ar  
    34    13    45 1   
    35    14    46 1   
    36    15    36 1   
    37    15    47 1   
    38    15    48 1   
    39    15    49 1   
    40    16    31 1   
    41    16    33 1   
    42    17    20 ar  
    43    17    31 1   
    44    17    32 ar  
    45    18    32 ar  
    46    18    50 1   
    47    19    20 ar  
    48    19    51 1   
    49    20    52 1   
    50    22    53 1   
    51    22    54 1   
    52    23    55 1   
    53    23    56 1   
    54    24    25 1   
    55    24    34 2   
    56    25    26 ar  
    57    25    30 ar  
    58    26    27 ar  
    59    26    57 1   
    60    27    28 ar  
    61    27    58 1   
    62    28    29 ar  
    63    28    59 1   
    64    29    30 ar  
    65    29    60 1   
    66    30    61 1   
    67    31    62 1   
    68    33    63 1   
    69    34    35 1   
@<TRIPOS>SUBSTRUCTURE
     1 WBG         1 TEMP              0 ****  ****    0 ROOT
