@<TRIPOS>MOLECULE
WBG
   64    69     1     0     0
SMALL
No Charge or Current Charge


@<TRIPOS>ATOM
      1 C17         -7.8580     7.9180   -47.8040 ca         1 WBG      -0.194000
      2 C21         -2.6950     5.2800   -44.9530 cc         1 WBG       0.242000
      3 C22         -3.1390     5.1130   -43.6820 cd         1 WBG      -0.200800
      4 C24         -4.8240     6.7160   -42.9140 c2         1 WBG      -0.236200
      5 C26         -7.1950     5.9640   -42.3560 c6         1 WBG      -0.074400
      6 C28         -5.3800     4.2430   -42.8250 c6         1 WBG      -0.039200
      7 C02         -0.8710     4.9930   -46.4620 c          1 WBG       0.582000
      8 C03         -1.8100     5.5800   -47.4680 cc         1 WBG      -0.345400
      9 C04         -1.3900     5.7710   -48.8570 ca         1 WBG      -0.061800
     10 C05         -0.5140     6.8190   -49.1900 ca         1 WBG      -0.059500
     11 C06         -0.1160     7.0080   -50.5250 ca         1 WBG      -0.177500
     12 C07         -0.5840     6.1530   -51.5350 ca         1 WBG       0.145100
     13 C08         -1.4590     5.0970   -51.2020 ca         1 WBG      -0.177500
     14 C09         -1.8570     4.9080   -49.8660 ca         1 WBG      -0.059500
     15 C11         -0.5790     5.5700   -53.9340 c3         1 WBG       0.148900
     16 C12         -3.1090     5.9800   -47.1690 cd         1 WBG       0.447000
     17 C14         -5.2780     7.0010   -47.9780 ca         1 WBG       0.611900
     18 C16         -7.1740     7.3670   -46.7090 ca         1 WBG       0.392900
     19 C18         -7.2050     8.0090   -49.0420 ca         1 WBG      -0.029000
     20 C19         -5.8860     7.5370   -49.1220 ca         1 WBG      -0.204000
     21 C23         -4.4560     5.4320   -43.1350 cf         1 WBG      -0.012400
     22 C25         -6.1670     7.1190   -42.3210 c6         1 WBG      -0.036200
     23 C27         -6.5450     4.6420   -41.8870 c6         1 WBG      -0.072400
     24 C29         -1.9620     4.5470   -43.0680 cd         1 WBG       0.343500
     25 C30         -1.7970     4.1160   -41.6620 ca         1 WBG      -0.124500
     26 C31         -2.5250     4.7370   -40.6220 ca         1 WBG      -0.085000
     27 C32         -2.3400     4.3460   -39.2850 ca         1 WBG      -0.120000
     28 C33         -1.4140     3.3410   -38.9660 ca         1 WBG      -0.105000
     29 C34         -0.6650     2.7340   -39.9860 ca         1 WBG      -0.120000
     30 C35         -0.8480     3.1250   -41.3240 ca         1 WBG      -0.085000
     31 N13         -3.9780     6.5340   -48.0390 nu         1 WBG      -0.814900
     32 N15         -5.9030     6.9130   -46.7890 nb         1 WBG      -0.764000
     33 N20         -3.5340     5.8130   -45.8900 na         1 WBG      -0.805000
     34 N36         -0.9750     4.4060   -43.9620 nc         1 WBG      -0.471800
     35 N37         -1.4320     4.8800   -45.1810 n          1 WBG       0.136000
     36 O10         -0.1590     6.3880   -52.8270 os         1 WBG      -0.340100
     37 H171        -8.8790     8.2680   -47.6860 ha         1 WBG       0.135000
     38 H241        -4.1310     7.5250   -43.1500 ha         1 WBG       0.173000
     39 H262        -8.0570     6.2100   -41.7230 hc         1 WBG       0.037700
     40 H261        -7.5800     5.8420   -43.3780 hc         1 WBG       0.037700
     41 H282        -5.7850     3.8580   -43.7710 hc         1 WBG       0.055200
     42 H281        -4.8040     3.4230   -42.3750 hc         1 WBG       0.055200
     43 H051        -0.1460     7.4880   -48.4160 ha         1 WBG       0.118000
     44 H061         0.5600     7.8220   -50.7780 ha         1 WBG       0.123000
     45 H081        -1.8380     4.4160   -51.9580 ha         1 WBG       0.123000
     46 H091        -2.5290     4.0910   -49.6130 ha         1 WBG       0.118000
     47 H112        -0.1260     5.9300   -54.8660 h1         1 WBG       0.040700
     48 H113        -0.2710     4.5270   -53.7870 h1         1 WBG       0.040700
     49 H111        -1.6690     5.6030   -54.0510 h1         1 WBG       0.040700
     50 H161        -7.6580     7.2860   -45.7360 h4         1 WBG       0.029100
     51 H181        -7.7060     8.4300   -49.9120 ha         1 WBG       0.127000
     52 H191        -5.3440     7.5890   -50.0620 ha         1 WBG       0.133000
     53 H251        -6.0120     7.4390   -41.2810 hc         1 WBG       0.041200
     54 H252        -6.5670     7.9910   -42.8570 hc         1 WBG       0.041200
     55 H271        -7.2940     3.8390   -41.8590 hc         1 WBG       0.042200
     56 H272        -6.1700     4.7600   -40.8610 hc         1 WBG       0.042200
     57 H311        -3.2300     5.5350   -40.8390 ha         1 WBG       0.125500
     58 H321        -2.9120     4.8280   -38.4950 ha         1 WBG       0.111500
     59 H331        -1.2710     3.0390   -37.9300 ha         1 WBG       0.110000
     60 H341         0.0610     1.9620   -39.7400 ha         1 WBG       0.111500
     61 H351        -0.2560     2.6430   -42.0990 ha         1 WBG       0.125500
     62 H131        -3.5650     6.6370   -48.9580 hn         1 WBG       0.532000
     63 H201        -4.4880     6.1150   -45.6890 hn         1 WBG       0.577000
     64 O01          0.2750     4.6410   -46.7260 o          1 WBG      -0.479000
@<TRIPOS>BOND
     1     1    18 ar  
     2     1    19 ar  
     3     1    37 1   
     4     2     3 2   
     5     2    33 1   
     6     2    35 1   
     7     3    21 1   
     8     3    24 1   
     9     4    21 2   
    10     4    22 1   
    11     4    38 1   
    12     5    22 1   
    13     5    23 1   
    14     5    39 1   
    15     5    40 1   
    16     6    21 1   
    17     6    23 1   
    18     6    41 1   
    19     6    42 1   
    20     7     8 1   
    21     7    35 1   
    22     7    64 2   
    23     8     9 1   
    24     8    16 2   
    25     9    10 ar  
    26     9    14 ar  
    27    10    11 ar  
    28    10    43 1   
    29    11    12 ar  
    30    11    44 1   
    31    12    13 ar  
    32    12    36 1   
    33    13    14 ar  
    34    13    45 1   
    35    14    46 1   
    36    15    36 1   
    37    15    47 1   
    38    15    48 1   
    39    15    49 1   
    40    16    31 1   
    41    16    33 1   
    42    17    20 ar  
    43    17    31 1   
    44    17    32 ar  
    45    18    32 ar  
    46    18    50 1   
    47    19    20 ar  
    48    19    51 1   
    49    20    52 1   
    50    22    53 1   
    51    22    54 1   
    52    23    55 1   
    53    23    56 1   
    54    24    25 1   
    55    24    34 2   
    56    25    26 ar  
    57    25    30 ar  
    58    26    27 ar  
    59    26    57 1   
    60    27    28 ar  
    61    27    58 1   
    62    28    29 ar  
    63    28    59 1   
    64    29    30 ar  
    65    29    60 1   
    66    30    61 1   
    67    31    62 1   
    68    33    63 1   
    69    34    35 1   
@<TRIPOS>SUBSTRUCTURE
     1 WBG         1 TEMP              0 ****  ****    0 ROOT
