@<TRIPOS>MOLECULE
WBI
   50    53     1     0     0
SMALL
No Charge or Current Charge


@<TRIPOS>ATOM
      1 C           -4.4970   -12.8620   -52.7060 c6         1 WBI      -0.075400
      2 N           -3.0960   -14.5020   -50.6950 nh         1 WBI      -0.807400
      3 O            0.0400   -21.4190   -47.7890 o          1 WBI      -0.584000
      4 C1          -5.1640   -14.0970   -52.0550 c6         1 WBI      -0.083900
      5 N1          -0.1640   -18.8500   -46.7980 ns         1 WBI      -0.402100
      6 O1          -0.0120   -16.9270   -45.5550 o          1 WBI      -0.603100
      7 C2          -4.1070   -15.1310   -51.5930 c6         1 WBI       0.210300
      8 N2           1.0630   -22.1580   -45.9140 ns         1 WBI      -0.347100
      9 C3          -2.4330   -15.2590   -49.7030 ca         1 WBI       0.351000
     10 N3           3.2060   -20.2670   -40.0060 nb         1 WBI      -0.663000
     11 C4          -2.1970   -16.6350   -49.8630 ca         1 WBI      -0.194000
     12 C5          -1.5350   -17.3750   -48.8680 ca         1 WBI      -0.024000
     13 C6          -1.0930   -16.7460   -47.6780 ca         1 WBI      -0.209600
     14 C7          -0.3750   -17.4980   -46.5730 c          1 WBI       0.631700
     15 C8           0.4460   -19.8480   -46.0150 cc         1 WBI      -0.043600
     16 C9           0.9690   -19.6480   -44.7410 cd         1 WBI      -0.144000
     17 C10          1.5870   -20.7480   -44.0120 cd         1 WBI      -0.098200
     18 C11          1.5920   -21.9860   -44.6440 cc         1 WBI      -0.056400
     19 C12          0.4830   -21.1820   -46.6730 c          1 WBI       0.530200
     20 C13          2.1410   -20.5800   -42.6380 ca         1 WBI       0.014200
     21 C14          2.5190   -21.6880   -41.8440 ca         1 WBI      -0.160500
     22 C15          3.0370   -21.4890   -40.5540 ca         1 WBI       0.334900
     23 C16          2.8540   -19.1990   -40.7520 ca         1 WBI       0.334900
     24 C17          2.3260   -19.3080   -42.0500 ca         1 WBI      -0.160500
     25 C18         -1.3350   -15.3630   -47.5240 ca         1 WBI      -0.024000
     26 C19         -1.9960   -14.6330   -48.5260 ca         1 WBI      -0.194000
     27 C20         -2.4200   -13.3130   -51.2890 c6         1 WBI       0.210300
     28 C21         -3.4530   -12.2520   -51.7420 c6         1 WBI      -0.083900
     29 H1          -4.0090   -13.1540   -53.6470 hc         1 WBI       0.043700
     30 H2          -5.2580   -12.1120   -52.9630 hc         1 WBI       0.043700
     31 H11         -5.7650   -13.7800   -51.1920 hc         1 WBI       0.050700
     32 H21         -5.8580   -14.5670   -52.7640 hc         1 WBI       0.050700
     33 HN1         -0.5130   -19.1580   -47.6960 hn         1 WBI       0.345500
     34 H12         -4.6270   -15.9490   -51.0720 h1         1 WBI       0.041700
     35 H22         -3.6110   -15.5630   -52.4750 h1         1 WBI       0.041700
     36 HN2          1.0920   -23.0730   -46.3500 hn         1 WBI       0.333500
     37 H4          -2.5140   -17.1410   -50.7700 ha         1 WBI       0.117500
     38 H5          -1.3780   -18.4360   -49.0470 ha         1 WBI       0.123000
     39 H9           0.9050   -18.6750   -44.2800 ha         1 WBI       0.229000
     40 H11A         2.0050   -22.9090   -44.2520 h4         1 WBI       0.207000
     41 H14          2.4080   -22.7090   -42.1890 ha         1 WBI       0.124000
     42 H15          3.3240   -22.3400   -39.9360 h4         1 WBI       0.019600
     43 H16          3.0030   -18.2210   -40.2970 h4         1 WBI       0.019600
     44 H17          2.0930   -18.3890   -42.5740 ha         1 WBI       0.124000
     45 H18         -1.0140   -14.8430   -46.6230 ha         1 WBI       0.123000
     46 H19         -2.1800   -13.5730   -48.3790 ha         1 WBI       0.117500
     47 H120        -1.8170   -13.6230   -52.1550 h1         1 WBI       0.041700
     48 H220        -1.7330   -12.8500   -50.5660 h1         1 WBI       0.041700
     49 H121        -2.9350   -11.4150   -52.2280 hc         1 WBI       0.050700
     50 H221        -3.9600   -11.8380   -50.8600 hc         1 WBI       0.050700
@<TRIPOS>BOND
     1     1     4 1   
     2     1    28 1   
     3     1    29 1   
     4     1    30 1   
     5     2     7 1   
     6     2     9 1   
     7     2    27 1   
     8     3    19 2   
     9     4     7 1   
    10     4    31 1   
    11     4    32 1   
    12     5    14 1   
    13     5    15 1   
    14     5    33 1   
    15     6    14 2   
    16     7    34 1   
    17     7    35 1   
    18     8    18 1   
    19     8    19 1   
    20     8    36 1   
    21     9    11 ar  
    22     9    26 ar  
    23    10    22 ar  
    24    10    23 ar  
    25    11    12 ar  
    26    11    37 1   
    27    12    13 ar  
    28    12    38 1   
    29    13    14 1   
    30    13    25 ar  
    31    15    16 2   
    32    15    19 1   
    33    16    17 1   
    34    16    39 1   
    35    17    18 2   
    36    17    20 1   
    37    18    40 1   
    38    20    21 ar  
    39    20    24 ar  
    40    21    22 ar  
    41    21    41 1   
    42    22    42 1   
    43    23    24 ar  
    44    23    43 1   
    45    24    44 1   
    46    25    26 ar  
    47    25    45 1   
    48    26    46 1   
    49    27    28 1   
    50    27    47 1   
    51    27    48 1   
    52    28    49 1   
    53    28    50 1   
@<TRIPOS>SUBSTRUCTURE
     1 WBI         1 TEMP              0 ****  ****    0 ROOT
