@<TRIPOS>MOLECULE
WBI
   50    53     1     0     0
SMALL
abcg2


@<TRIPOS>ATOM
      1 C           -4.3680   -12.8920   -52.6750 c6         1 WBI      -0.075400
      2 N           -3.0770   -14.4990   -50.6110 nh         1 WBI      -0.807400
      3 O           -0.6930   -21.5030   -47.4370 o          1 WBI      -0.584000
      4 C1          -4.6120   -14.3920   -52.5440 c6         1 WBI      -0.083900
      5 N1          -0.4270   -18.9300   -46.7300 ns         1 WBI      -0.402100
      6 O1           0.0900   -17.0100   -45.6230 o          1 WBI      -0.603100
      7 C2          -3.4300   -15.1070   -51.8940 c6         1 WBI       0.210300
      8 N2           0.5090   -22.2240   -45.6350 ns         1 WBI      -0.347100
      9 C3          -2.3960   -15.2470   -49.6700 ca         1 WBI       0.351000
     10 N3           3.6840   -20.0710   -40.4380 nb         1 WBI      -0.663000
     11 C4          -1.9780   -16.5710   -49.9230 ca         1 WBI      -0.194000
     12 C5          -1.3560   -17.3290   -48.9470 ca         1 WBI      -0.024000
     13 C6          -1.0970   -16.8120   -47.6750 ca         1 WBI      -0.209600
     14 C7          -0.4260   -17.5680   -46.5920 c          1 WBI       0.631700
     15 C8           0.1610   -19.8870   -45.9150 cc         1 WBI      -0.043600
     16 C9           0.8690   -19.6700   -44.7650 cd         1 WBI      -0.144000
     17 C10          1.4160   -20.7550   -44.0210 cd         1 WBI      -0.098200
     18 C11          1.2150   -22.0210   -44.4930 cc         1 WBI      -0.056400
     19 C12         -0.0550   -21.2390   -46.4080 c          1 WBI       0.530200
     20 C13          2.1880   -20.5200   -42.7880 ca         1 WBI       0.014200
     21 C14          2.2450   -21.4680   -41.7610 ca         1 WBI      -0.160500
     22 C15          2.9980   -21.2040   -40.6280 ca         1 WBI       0.334900
     23 C16          3.6220   -19.1610   -41.4150 ca         1 WBI       0.334900
     24 C17          2.9020   -19.3360   -42.5880 ca         1 WBI      -0.160500
     25 C18         -1.4800   -15.4870   -47.4270 ca         1 WBI      -0.024000
     26 C19         -2.1130   -14.7260   -48.3860 ca         1 WBI      -0.194000
     27 C20         -2.8310   -13.0540   -50.6980 c6         1 WBI       0.210300
     28 C21         -4.0110   -12.3120   -51.3100 c6         1 WBI      -0.083900
     29 H1          -3.5410   -12.7150   -53.3720 hc         1 WBI       0.043700
     30 H2          -5.2480   -12.3950   -53.0890 hc         1 WBI       0.043700
     31 H11         -5.5040   -14.5630   -51.9330 hc         1 WBI       0.050700
     32 H21         -4.7950   -14.8470   -53.5200 hc         1 WBI       0.050700
     33 HN1         -0.9340   -19.3390   -47.5030 hn         1 WBI       0.345500
     34 H12         -3.7000   -16.1460   -51.7270 h1         1 WBI       0.041700
     35 H22         -2.5650   -15.0920   -52.5740 h1         1 WBI       0.041700
     36 HN2          0.3810   -23.1720   -45.9680 hn         1 WBI       0.333500
     37 H4          -2.1140   -17.0110   -50.8990 ha         1 WBI       0.117500
     38 H5          -1.0340   -18.3270   -49.2180 ha         1 WBI       0.123000
     39 H9           0.9910   -18.6590   -44.4130 ha         1 WBI       0.229000
     40 H11A         1.6070   -22.9100   -44.0230 h4         1 WBI       0.207000
     41 H14          1.6960   -22.3980   -41.8260 ha         1 WBI       0.124000
     42 H15          3.0440   -21.9360   -39.8290 h4         1 WBI       0.019600
     43 H16          4.1800   -18.2440   -41.2580 h4         1 WBI       0.019600
     44 H17          2.9170   -18.5580   -43.3390 ha         1 WBI       0.124000
     45 H18         -1.2880   -15.0630   -46.4510 ha         1 WBI       0.123000
     46 H19         -2.4200   -13.7240   -48.1250 ha         1 WBI       0.117500
     47 H120        -1.9340   -12.8850   -51.3130 h1         1 WBI       0.041700
     48 H220        -2.6220   -12.6580   -49.7100 h1         1 WBI       0.041700
     49 H121        -3.7530   -11.2530   -51.3890 hc         1 WBI       0.050700
     50 H221        -4.8710   -12.3910   -50.6380 hc         1 WBI       0.050700
@<TRIPOS>BOND
     1     1     4 1   
     2     1    28 1   
     3     1    29 1   
     4     1    30 1   
     5     2     7 1   
     6     2     9 1   
     7     2    27 1   
     8     3    19 2   
     9     4     7 1   
    10     4    31 1   
    11     4    32 1   
    12     5    14 1   
    13     5    15 1   
    14     5    33 1   
    15     6    14 2   
    16     7    34 1   
    17     7    35 1   
    18     8    18 1   
    19     8    19 1   
    20     8    36 1   
    21     9    11 ar  
    22     9    26 ar  
    23    10    22 ar  
    24    10    23 ar  
    25    11    12 ar  
    26    11    37 1   
    27    12    13 ar  
    28    12    38 1   
    29    13    14 1   
    30    13    25 ar  
    31    15    16 2   
    32    15    19 1   
    33    16    17 1   
    34    16    39 1   
    35    17    18 2   
    36    17    20 1   
    37    18    40 1   
    38    20    21 ar  
    39    20    24 ar  
    40    21    22 ar  
    41    21    41 1   
    42    22    42 1   
    43    23    24 ar  
    44    23    43 1   
    45    24    44 1   
    46    25    26 ar  
    47    25    45 1   
    48    26    46 1   
    49    27    28 1   
    50    27    47 1   
    51    27    48 1   
    52    28    49 1   
    53    28    50 1   
@<TRIPOS>SUBSTRUCTURE
     1 WBI         1 TEMP              0 ****  ****    0 ROOT
