@<TRIPOS>MOLECULE
WBL
   28    28     1     0     0
SMALL
abcg2


@<TRIPOS>ATOM
      1 N1          46.5770    33.0860    27.5200 nc         1 WBL      -0.430000
      2 C7          47.7030    32.8400    26.8780 cd         1 WBL       0.690300
      3 N2          48.4820    33.8030    26.3550 nv         1 WBL      -1.054900
      4 C1          44.1510    31.6490    31.4110 c3         1 WBL      -0.108400
      5 C5          48.3460    28.5480    29.2780 c3         1 WBL      -0.080100
      6 C6          46.5650    30.8560    27.6170 cd         1 WBL       0.464700
      7 C4          46.8600    28.7650    29.4920 c3         1 WBL       0.005300
      8 C3          46.5540    29.7900    30.5640 c          1 WBL       0.594100
      9 C2          44.8920    30.5250    32.1110 c3         1 WBL       0.166600
     10 O           45.3830    29.5470    31.1540 os         1 WBL      -0.442100
     11 C           43.5780    32.6420    32.4210 c3         1 WBL      -0.086100
     12 S           45.9400    29.2580    27.9560 ss         1 WBL      -0.313300
     13 S1          48.0540    31.1400    26.7320 ss         1 WBL      -0.318800
     14 N           45.9460    31.9540    27.9260 nc         1 WBL      -0.232000
     15 H1          48.2920    34.7570    26.6250 hn         1 WBL       0.499000
     16 H2          49.4150    33.5910    26.0450 hn         1 WBL       0.499000
     17 H3          44.8320    32.1570    30.7260 hc         1 WBL       0.064700
     18 H4          43.3470    31.2190    30.8080 hc         1 WBL       0.064700
     19 H5          48.7960    28.1740    30.2000 hc         1 WBL       0.054700
     20 H6          48.5060    27.8150    28.4880 hc         1 WBL       0.054700
     21 H7          48.8480    29.4760    29.0110 hc         1 WBL       0.054700
     22 H8          46.3560    27.8320    29.7440 h1         1 WBL       0.107700
     23 H9          44.2290    29.9560    32.7600 h1         1 WBL       0.060200
     24 H10         45.7320    30.9020    32.6930 h1         1 WBL       0.060200
     25 H11         43.0370    33.4410    31.9120 hc         1 WBL       0.034700
     26 H12         42.8850    32.1500    33.1070 hc         1 WBL       0.034700
     27 H13         44.3720    33.1000    33.0160 hc         1 WBL       0.034700
     28 O1          47.2800    30.7220    30.8300 o          1 WBL      -0.477000
@<TRIPOS>BOND
     1     1     2 2   
     2     1    14 1   
     3     2     3 1   
     4     2    13 1   
     5     3    15 1   
     6     3    16 1   
     7     4     9 1   
     8     4    11 1   
     9     4    17 1   
    10     4    18 1   
    11     5     7 1   
    12     5    19 1   
    13     5    20 1   
    14     5    21 1   
    15     6    12 1   
    16     6    13 1   
    17     6    14 2   
    18     7     8 1   
    19     7    12 1   
    20     7    22 1   
    21     8    10 1   
    22     8    28 2   
    23     9    10 1   
    24     9    23 1   
    25     9    24 1   
    26    11    25 1   
    27    11    26 1   
    28    11    27 1   
@<TRIPOS>SUBSTRUCTURE
     1 WBL         1 TEMP              0 ****  ****    0 ROOT
