@<TRIPOS>MOLECULE
WBL
   28    28     1     0     0
SMALL
No Charge or Current Charge


@<TRIPOS>ATOM
      1 N1          47.7010    32.7400    28.3060 nc         1 WBL      -0.430000
      2 C7          47.0860    32.9110    27.1550 cd         1 WBL       0.690300
      3 N2          47.0750    34.1300    26.5940 nv         1 WBL      -1.054900
      4 C1          44.6630    31.8970    31.0300 c3         1 WBL      -0.108400
      5 C5          48.6940    28.4040    29.7920 c3         1 WBL      -0.080100
      6 C6          46.9160    30.7120    27.8230 cd         1 WBL       0.464700
      7 C4          47.1510    28.5310    29.7450 c3         1 WBL       0.005300
      8 C3          46.5610    29.4630    30.8310 c          1 WBL       0.594100
      9 C2          44.4790    30.4640    31.5810 c3         1 WBL       0.166600
     10 O           45.1930    29.5460    30.7300 os         1 WBL      -0.442100
     11 C           43.8440    32.9480    31.8050 c3         1 WBL      -0.086100
     12 S           46.5840    28.9800    28.0200 ss         1 WBL      -0.313300
     13 S1          46.3310    31.5420    26.4120 ss         1 WBL      -0.318800
     14 N           47.6030    31.4160    28.7110 nc         1 WBL      -0.232000
     15 H1          47.7550    34.7890    26.9550 hn         1 WBL       0.499000
     16 H2          46.8810    34.1820    25.6000 hn         1 WBL       0.499000
     17 H3          45.7210    32.1810    31.0680 hc         1 WBL       0.064700
     18 H4          44.3630    31.9180    29.9750 hc         1 WBL       0.064700
     19 H5          49.0190    28.0320    30.7720 hc         1 WBL       0.054700
     20 H6          49.0440    27.6970    29.0310 hc         1 WBL       0.054700
     21 H7          49.1830    29.3680    29.6150 hc         1 WBL       0.054700
     22 H8          46.7320    27.5400    29.9600 h1         1 WBL       0.107700
     23 H9          43.4080    30.2190    31.5710 h1         1 WBL       0.060200
     24 H10         44.8240    30.4020    32.6220 h1         1 WBL       0.060200
     25 H11         44.0030    33.9460    31.3810 hc         1 WBL       0.034700
     26 H12         42.7720    32.7210    31.7540 hc         1 WBL       0.034700
     27 H13         44.1430    32.9720    32.8600 hc         1 WBL       0.034700
     28 O1          47.2280    30.0460    31.6780 o          1 WBL      -0.477000
@<TRIPOS>BOND
     1     1     2 2   
     2     1    14 1   
     3     2     3 1   
     4     2    13 1   
     5     3    15 1   
     6     3    16 1   
     7     4     9 1   
     8     4    11 1   
     9     4    17 1   
    10     4    18 1   
    11     5     7 1   
    12     5    19 1   
    13     5    20 1   
    14     5    21 1   
    15     6    12 1   
    16     6    13 1   
    17     6    14 2   
    18     7     8 1   
    19     7    12 1   
    20     7    22 1   
    21     8    10 1   
    22     8    28 2   
    23     9    10 1   
    24     9    23 1   
    25     9    24 1   
    26    11    25 1   
    27    11    26 1   
    28    11    27 1   
@<TRIPOS>SUBSTRUCTURE
     1 WBL         1 TEMP              0 ****  ****    0 ROOT
