@<TRIPOS>MOLECULE
WBM
   44    48     1     0     0
SMALL
No Charge or Current Charge


@<TRIPOS>ATOM
      1 C10         -6.5350     7.5370   -48.9230 cc         1 WBM      -0.258000
      2 C13         -3.1560     5.1530   -43.8080 cc         1 WBM      -0.193000
      3 C15         -5.1400     6.6370   -43.3570 ca         1 WBM      -0.105500
      4 C17         -6.9200     5.9090   -41.8650 ca         1 WBM      -0.116000
      5 C20         -2.0100     4.3870   -43.4110 cc         1 WBM       0.342500
      6 C21         -1.6600     3.9880   -42.0320 ca         1 WBM      -0.126500
      7 C22         -2.2050     4.6500   -40.9070 ca         1 WBM      -0.083000
      8 C24         -0.8840     3.2690   -39.3980 ca         1 WBM      -0.104000
      9 C26         -0.6770     2.9940   -41.8080 ca         1 WBM      -0.083000
     10 C02         -1.4120     4.7850   -46.8950 c          1 WBM       0.584000
     11 C03         -2.4350     5.4290   -47.7380 cc         1 WBM      -0.512200
     12 C04         -3.6350     5.9160   -47.2880 cd         1 WBM       0.447000
     13 C06         -5.7890     7.0060   -47.8740 cc         1 WBM       0.505900
     14 C09         -7.7070     7.9760   -48.3850 cd         1 WBM      -0.127000
     15 C12         -2.9470     5.2820   -45.1470 cd         1 WBM       0.250000
     16 C14         -4.4440     5.4250   -43.1470 ca         1 WBM       0.013000
     17 C16         -6.3700     6.8760   -42.7200 ca         1 WBM      -0.113000
     18 C18         -6.2360     4.7040   -41.6430 ca         1 WBM      -0.113000
     19 C19         -5.0060     4.4650   -42.2800 ca         1 WBM      -0.105500
     20 C23         -1.8290     4.2850   -39.6020 ca         1 WBM      -0.119000
     21 C25         -0.3030     2.6300   -40.5030 ca         1 WBM      -0.119000
     22 N05         -4.5500     6.4770   -48.0940 nu         1 WBM      -0.800900
     23 N07         -6.3760     7.0630   -46.7020 nd         1 WBM      -0.603800
     24 N08         -7.5950     7.6780   -47.0170 na         1 WBM       0.011800
     25 N11         -3.9310     5.8200   -45.9580 na         1 WBM      -0.808000
     26 N27         -1.1600     4.1580   -44.4160 nd         1 WBM      -0.469800
     27 N28         -1.7700     4.7360   -45.5440 n          1 WBM       0.134000
     28 H101        -6.2280     7.5830   -49.9620 ha         1 WBM       0.157000
     29 H151        -4.7130     7.4140   -43.9860 ha         1 WBM       0.118000
     30 H171        -7.8720     6.0950   -41.3720 ha         1 WBM       0.110000
     31 H221        -2.9020     5.4730   -41.0290 ha         1 WBM       0.124000
     32 H241        -0.5920     2.9890   -38.3880 ha         1 WBM       0.110000
     33 H261        -0.2080     2.4830   -42.6460 ha         1 WBM       0.124000
     34 H031        -2.1730     5.4820   -48.7850 ha         1 WBM       0.216000
     35 H091        -8.5750     8.4540   -48.8290 h4         1 WBM       0.164000
     36 H161        -6.8920     7.8160   -42.8850 ha         1 WBM       0.110000
     37 H181        -6.6600     3.9520   -40.9810 ha         1 WBM       0.110000
     38 H191        -4.4970     3.5190   -42.1110 ha         1 WBM       0.118000
     39 H231        -2.2630     4.8010   -38.7490 ha         1 WBM       0.112000
     40 H251         0.4420     1.8520   -40.3500 ha         1 WBM       0.112000
     41 H051        -4.2660     6.5160   -49.0660 hn         1 WBM       0.527000
     42 H081        -8.3000     7.8710   -46.3030 hn         1 WBM       0.386000
     43 H111        -4.8330     6.1570   -45.6290 hn         1 WBM       0.566000
     44 O01         -0.3650     4.3360   -47.3450 o          1 WBM      -0.489000
@<TRIPOS>BOND
     1     1    13 1   
     2     1    14 2   
     3     1    28 1   
     4     2     5 1   
     5     2    15 2   
     6     2    16 1   
     7     3    16 ar  
     8     3    17 ar  
     9     3    29 1   
    10     4    17 ar  
    11     4    18 ar  
    12     4    30 1   
    13     5     6 1   
    14     5    26 2   
    15     6     7 ar  
    16     6     9 ar  
    17     7    20 ar  
    18     7    31 1   
    19     8    20 ar  
    20     8    21 ar  
    21     8    32 1   
    22     9    21 ar  
    23     9    33 1   
    24    10    11 1   
    25    10    27 1   
    26    10    44 2   
    27    11    12 2   
    28    11    34 1   
    29    12    22 1   
    30    12    25 1   
    31    13    22 1   
    32    13    23 2   
    33    14    24 1   
    34    14    35 1   
    35    15    25 1   
    36    15    27 1   
    37    16    19 ar  
    38    17    36 1   
    39    18    19 ar  
    40    18    37 1   
    41    19    38 1   
    42    20    39 1   
    43    21    40 1   
    44    22    41 1   
    45    23    24 1   
    46    24    42 1   
    47    25    43 1   
    48    26    27 1   
@<TRIPOS>SUBSTRUCTURE
     1 WBM         1 TEMP              0 ****  ****    0 ROOT
