@<TRIPOS>MOLECULE
WBM
   44    48     1     0     0
SMALL
bcc


@<TRIPOS>ATOM
      1 C10         -6.5220     7.4620   -49.1050 cc         1 WBM      -0.341300
      2 C13         -3.3360     5.1200   -43.8040 cc         1 WBM      -0.258300
      3 C15         -5.1660     6.6410   -43.0830 ca         1 WBM      -0.123500
      4 C17         -6.8770     5.9020   -41.5610 ca         1 WBM      -0.134000
      5 C20         -2.1070     4.5230   -43.4150 cc         1 WBM       0.407800
      6 C21         -1.7060     4.0850   -42.0740 ca         1 WBM      -0.126500
      7 C22         -2.0560     4.8270   -40.9450 ca         1 WBM      -0.101000
      8 C24         -0.9000     3.2620   -39.5290 ca         1 WBM      -0.122000
      9 C26         -0.9420     2.9290   -41.9110 ca         1 WBM      -0.101000
     10 C02         -1.3780     4.9430   -46.7910 c          1 WBM       0.659500
     11 C03         -2.2750     5.5090   -47.7370 cc         1 WBM      -0.462200
     12 C04         -3.5390     5.9450   -47.3920 cd         1 WBM       0.447000
     13 C06         -5.6700     6.9420   -48.1130 cc         1 WBM       0.571200
     14 C09         -7.6680     7.7830   -48.4150 cd         1 WBM      -0.094300
     15 C12         -3.1590     5.3380   -45.1530 cd         1 WBM       0.162300
     16 C14         -4.5470     5.3920   -43.0230 ca         1 WBM       0.013000
     17 C16         -6.3250     6.8930   -42.3610 ca         1 WBM      -0.131000
     18 C18         -6.2650     4.6560   -41.4910 ca         1 WBM      -0.131000
     19 C19         -5.1140     4.4010   -42.2200 ca         1 WBM      -0.123500
     20 C23         -1.6550     4.4170   -39.6820 ca         1 WBM      -0.137000
     21 C25         -0.5430     2.5200   -40.6480 ca         1 WBM      -0.137000
     22 N05         -4.3830     6.4720   -48.3110 nu         1 WBM      -0.745700
     23 N07         -6.2470     6.9490   -46.9250 nd         1 WBM      -0.603800
     24 N08         -7.4580     7.4620   -47.1340 na         1 WBM       0.011400
     25 N11         -3.9700     5.8540   -46.1120 na         1 WBM      -0.614400
     26 N27         -1.2730     4.3920   -44.4290 nd         1 WBM      -0.469800
     27 N28         -1.9250     4.8900   -45.4870 n          1 WBM       0.083300
     28 H101        -6.3250     7.5800   -50.1570 ha         1 WBM       0.175000
     29 H151        -4.7290     7.4320   -43.6810 ha         1 WBM       0.136000
     30 H171        -7.7770     6.0980   -40.9940 ha         1 WBM       0.128000
     31 H221        -2.6300     5.7380   -41.0520 ha         1 WBM       0.142000
     32 H241        -0.5910     2.9410   -38.5420 ha         1 WBM       0.128000
     33 H261        -0.6670     2.3420   -42.7790 ha         1 WBM       0.142000
     34 H031        -1.9460     5.5930   -48.7630 ha         1 WBM       0.166000
     35 H091        -8.5980     8.2100   -48.7510 h4         1 WBM       0.182000
     36 H161        -6.7920     7.8670   -42.4180 ha         1 WBM       0.128000
     37 H181        -6.6910     3.8760   -40.8730 ha         1 WBM       0.128000
     38 H191        -4.6530     3.4220   -42.1730 ha         1 WBM       0.136000
     39 H231        -1.9300     5.0060   -38.8170 ha         1 WBM       0.130000
     40 H251         0.0440     1.6180   -40.5360 ha         1 WBM       0.130000
     41 H051        -4.0330     6.5250   -49.2550 hn         1 WBM       0.471800
     42 H081        -8.0940     7.5660   -46.3600 hn         1 WBM       0.335700
     43 H111        -4.9120     6.1790   -45.8820 hn         1 WBM       0.510800
     44 O01         -0.2530     4.5250   -46.9950 o          1 WBM      -0.564500
@<TRIPOS>BOND
     1     1    13 1   
     2     1    14 2   
     3     1    28 1   
     4     2     5 1   
     5     2    15 2   
     6     2    16 1   
     7     3    16 ar  
     8     3    17 ar  
     9     3    29 1   
    10     4    17 ar  
    11     4    18 ar  
    12     4    30 1   
    13     5     6 1   
    14     5    26 2   
    15     6     7 ar  
    16     6     9 ar  
    17     7    20 ar  
    18     7    31 1   
    19     8    20 ar  
    20     8    21 ar  
    21     8    32 1   
    22     9    21 ar  
    23     9    33 1   
    24    10    11 1   
    25    10    27 1   
    26    10    44 2   
    27    11    12 2   
    28    11    34 1   
    29    12    22 1   
    30    12    25 1   
    31    13    22 1   
    32    13    23 2   
    33    14    24 1   
    34    14    35 1   
    35    15    25 1   
    36    15    27 1   
    37    16    19 ar  
    38    17    36 1   
    39    18    19 ar  
    40    18    37 1   
    41    19    38 1   
    42    20    39 1   
    43    21    40 1   
    44    22    41 1   
    45    23    24 1   
    46    24    42 1   
    47    25    43 1   
    48    26    27 1   
@<TRIPOS>SUBSTRUCTURE
     1 WBM         1 TEMP              0 ****  ****    0 ROOT
