@<TRIPOS>MOLECULE
WBN
   52    55     1     0     0
SMALL
No Charge or Current Charge


@<TRIPOS>ATOM
      1 N3          -0.8560   -26.7810    33.9610 nc         1 WBN      -0.638000
      2 C4          -0.6240   -25.4790    34.0540 cd         1 WBN       0.417300
      3 C6          -2.0660   -26.2270    35.8850 cd         1 WBN      -0.171000
      4 C7          -2.8230   -26.3460    37.1610 ca         1 WBN      -0.008000
      5 C8          -2.9890   -27.5760    37.8400 ca         1 WBN      -0.093500
      6 C10         -4.2790   -26.4940    39.6070 ca         1 WBN      -0.090300
      7 N12         -4.1710   -26.3550    42.0640 ns         1 WBN      -0.501900
      8 C13         -3.5550   -27.3560    42.7800 c          1 WBN       0.620100
      9 C15         -2.6110   -26.9170    43.9000 c6         1 WBN      -0.229700
     10 C17         -0.9680   -25.2420    44.8800 c6         1 WBN       0.154300
     11 C21         -3.2510   -27.0540    45.2860 c          1 WBN       0.567000
     12 C26         -3.4940   -27.7000    50.3380 ca         1 WBN      -0.175000
     13 C28         -3.3360   -28.3150    48.0180 ca         1 WBN      -0.142000
     14 C2          -1.6570   -27.2080    34.9910 cc         1 WBN       0.296300
     15 S5          -1.3900   -24.6700    35.4080 ss         1 WBN      -0.043400
     16 C9          -3.7090   -27.6480    39.0460 ca         1 WBN      -0.098500
     17 C11         -5.0510   -26.5740    40.9160 c3         1 WBN       0.155300
     18 O14         -3.7110   -28.5370    42.5080 o          1 WBN      -0.579100
     19 C16         -1.9560   -25.5140    43.7290 c6         1 WBN      -0.067400
     20 O18         -0.3820   -23.9450    44.7130 oh         1 WBN      -0.654000
     21 C19         -1.7120   -25.3400    46.2360 c6         1 WBN       0.079000
     22 N20         -2.5090   -26.5980    46.3990 n          1 WBN      -0.406300
     23 O22         -4.3510   -27.5700    45.4170 o          1 WBN      -0.531000
     24 C23         -2.8250   -27.0260    47.7410 ca         1 WBN       0.461900
     25 N24         -2.6670   -26.1020    48.7190 nb         1 WBN      -0.710000
     26 C25         -2.9910   -26.4380    49.9880 ca         1 WBN       0.354900
     27 C27         -3.6720   -28.6640    49.3360 ca         1 WBN      -0.060000
     28 C29         -4.1120   -25.2640    38.9520 ca         1 WBN      -0.098500
     29 C30         -3.3900   -25.1910    37.7480 ca         1 WBN      -0.093500
     30 H4          -0.0180   -24.9080    33.3620 h5         1 WBN       0.052100
     31 H8          -2.5370   -28.4880    37.4740 ha         1 WBN       0.118000
     32 H12         -3.9750   -25.4020    42.3410 hn         1 WBN       0.318500
     33 H15         -1.7870   -27.6410    43.9360 hc         1 WBN       0.106700
     34 H17         -0.1840   -26.0140    44.8550 h1         1 WBN       0.046700
     35 H28         -3.4490   -29.0500    47.2270 ha         1 WBN       0.144000
     36 H9          -3.8120   -28.6060    39.5500 ha         1 WBN       0.113500
     37 H11A        -5.8390   -25.8080    40.9260 h1         1 WBN       0.062700
     38 H11B        -5.5430   -27.5520    41.0030 h1         1 WBN       0.062700
     39 H16A        -1.4260   -25.4590    42.7670 hc         1 WBN       0.068200
     40 H16B        -2.7220   -24.7260    43.7190 hc         1 WBN       0.068200
     41 H18          0.3710   -23.8850    45.3420 ho         1 WBN       0.450000
     42 H19A        -0.9600   -25.2710    47.0350 h1         1 WBN       0.065200
     43 H19B        -2.3890   -24.4800    46.3420 h1         1 WBN       0.065200
     44 H25         -2.8460   -25.6700    50.7460 h4         1 WBN       0.022100
     45 H27         -4.0580   -29.6540    49.5720 ha         1 WBN       0.125000
     46 H29         -4.5410   -24.3580    39.3750 ha         1 WBN       0.113500
     47 H30         -3.2970   -24.2210    37.2690 ha         1 WBN       0.118000
     48 C1          -2.0230   -28.6680    34.9740 c3         1 WBN      -0.120400
     49 H26         -3.7400   -27.9210    51.3730 ha         1 WBN       0.128000
     50 H1C         -1.8990   -29.0980    33.9720 hc         1 WBN       0.051700
     51 H1A         -1.3850   -29.2400    35.6570 hc         1 WBN       0.051700
     52 H1B         -3.0710   -28.8150    35.2570 hc         1 WBN       0.051700
@<TRIPOS>BOND
     1     1     2 2   
     2     1    14 1   
     3     2    15 1   
     4     2    30 1   
     5     3     4 1   
     6     3    14 2   
     7     3    15 1   
     8     4     5 ar  
     9     4    29 ar  
    10     5    16 ar  
    11     5    31 1   
    12     6    16 ar  
    13     6    17 1   
    14     6    28 ar  
    15     7     8 1   
    16     7    17 1   
    17     7    32 1   
    18     8     9 1   
    19     8    18 2   
    20     9    11 1   
    21     9    19 1   
    22     9    33 1   
    23    10    19 1   
    24    10    20 1   
    25    10    21 1   
    26    10    34 1   
    27    11    22 1   
    28    11    23 2   
    29    12    26 ar  
    30    12    27 ar  
    31    12    49 1   
    32    13    24 ar  
    33    13    27 ar  
    34    13    35 1   
    35    14    48 1   
    36    16    36 1   
    37    17    37 1   
    38    17    38 1   
    39    19    39 1   
    40    19    40 1   
    41    20    41 1   
    42    21    22 1   
    43    21    42 1   
    44    21    43 1   
    45    22    24 1   
    46    24    25 ar  
    47    25    26 ar  
    48    26    44 1   
    49    27    45 1   
    50    28    29 ar  
    51    28    46 1   
    52    29    47 1   
    53    48    50 1   
    54    48    51 1   
    55    48    52 1   
@<TRIPOS>SUBSTRUCTURE
     1 WBN         1 TEMP              0 ****  ****    0 ROOT
