@<TRIPOS>MOLECULE
WBN
   52    55     1     0     0
SMALL
abcg2


@<TRIPOS>ATOM
      1 N3          -1.6100   -26.2380    33.7810 nc         1 WBN      -0.638000
      2 C4          -0.4500   -25.8580    34.2300 cd         1 WBN       0.417300
      3 C6          -1.9290   -26.4740    36.0670 cd         1 WBN      -0.171000
      4 C7          -2.5320   -26.7630    37.3720 ca         1 WBN      -0.008000
      5 C8          -3.3360   -27.8940    37.5570 ca         1 WBN      -0.093500
      6 C10         -3.6750   -27.3320    39.8870 ca         1 WBN      -0.090300
      7 N12         -3.6100   -27.1580    42.3720 ns         1 WBN      -0.501900
      8 C13         -2.4640   -27.7280    42.7870 c          1 WBN       0.620100
      9 C15         -1.7940   -27.0910    44.0040 c6         1 WBN      -0.229700
     10 C17         -0.8700   -25.0610    45.0680 c6         1 WBN       0.154300
     11 C21         -2.6330   -27.3440    45.2580 c          1 WBN       0.567000
     12 C26         -4.4550   -26.9870    49.9190 ca         1 WBN      -0.175000
     13 C28         -3.1300   -27.9100    48.1470 ca         1 WBN      -0.142000
     14 C2          -2.4640   -26.5910    34.8050 cc         1 WBN       0.296300
     15 S5          -0.2950   -25.8960    35.9430 ss         1 WBN      -0.043400
     16 C9          -3.8980   -28.1690    38.7950 ca         1 WBN      -0.098500
     17 C11         -4.3370   -27.6410    41.2130 c3         1 WBN       0.155300
     18 O14         -1.9640   -28.6940    42.2150 o          1 WBN      -0.579100
     19 C16         -1.3690   -25.6410    43.7640 c6         1 WBN      -0.067400
     20 O18         -0.4490   -23.7210    44.8330 oh         1 WBN      -0.654000
     21 C19         -2.0000   -25.0770    46.0870 c6         1 WBN       0.079000
     22 N20         -2.5580   -26.4290    46.2720 n          1 WBN      -0.406300
     23 O22         -3.2850   -28.3790    45.3430 o          1 WBN      -0.531000
     24 C23         -3.2170   -26.6710    47.5110 ca         1 WBN       0.461900
     25 N24         -3.8610   -25.6340    48.0340 nb         1 WBN      -0.710000
     26 C25         -4.4650   -25.7930    49.2170 ca         1 WBN       0.354900
     27 C27         -3.7660   -28.0640    49.3670 ca         1 WBN      -0.060000
     28 C29         -2.8670   -26.2110    39.7100 ca         1 WBN      -0.098500
     29 C30         -2.3030   -25.9300    38.4740 ca         1 WBN      -0.093500
     30 H4           0.3690   -25.5340    33.6040 h5         1 WBN       0.052100
     31 H8          -3.4970   -28.5790    36.7360 ha         1 WBN       0.118000
     32 H12         -3.9780   -26.3590    42.8630 hn         1 WBN       0.318500
     33 H15         -0.8940   -27.6890    44.1700 hc         1 WBN       0.106700
     34 H17         -0.0310   -25.6600    45.4420 h1         1 WBN       0.046700
     35 H28         -2.5760   -28.7200    47.7000 ha         1 WBN       0.144000
     36 H9          -4.5060   -29.0570    38.9180 ha         1 WBN       0.113500
     37 H11A        -5.3250   -27.1790    41.2470 h1         1 WBN       0.062700
     38 H11B        -4.4790   -28.7190    41.2990 h1         1 WBN       0.062700
     39 H16A        -0.5890   -25.6110    43.0020 hc         1 WBN       0.068200
     40 H16B        -2.2060   -25.0360    43.4100 hc         1 WBN       0.068200
     41 H18         -0.0280   -23.3840    45.6340 ho         1 WBN       0.450000
     42 H19A        -1.6370   -24.7360    47.0550 h1         1 WBN       0.065200
     43 H19B        -2.7810   -24.3870    45.7590 h1         1 WBN       0.065200
     44 H25         -4.9780   -24.9220    49.6120 h4         1 WBN       0.022100
     45 H27         -3.7140   -29.0110    49.8890 ha         1 WBN       0.125000
     46 H29         -2.6710   -25.5520    40.5470 ha         1 WBN       0.113500
     47 H30         -1.6870   -25.0470    38.3580 ha         1 WBN       0.118000
     48 C1          -3.8530   -27.0240    34.4600 c3         1 WBN      -0.120400
     49 H26         -4.9620   -27.0680    50.8700 ha         1 WBN       0.128000
     50 H1C         -4.2140   -26.4520    33.6050 hc         1 WBN       0.051700
     51 H1A         -3.8810   -28.0820    34.1860 hc         1 WBN       0.051700
     52 H1B         -4.5350   -26.8790    35.2960 hc         1 WBN       0.051700
@<TRIPOS>BOND
     1     1     2 2   
     2     1    14 1   
     3     2    15 1   
     4     2    30 1   
     5     3     4 1   
     6     3    14 2   
     7     3    15 1   
     8     4     5 ar  
     9     4    29 ar  
    10     5    16 ar  
    11     5    31 1   
    12     6    16 ar  
    13     6    17 1   
    14     6    28 ar  
    15     7     8 1   
    16     7    17 1   
    17     7    32 1   
    18     8     9 1   
    19     8    18 2   
    20     9    11 1   
    21     9    19 1   
    22     9    33 1   
    23    10    19 1   
    24    10    20 1   
    25    10    21 1   
    26    10    34 1   
    27    11    22 1   
    28    11    23 2   
    29    12    26 ar  
    30    12    27 ar  
    31    12    49 1   
    32    13    24 ar  
    33    13    27 ar  
    34    13    35 1   
    35    14    48 1   
    36    16    36 1   
    37    17    37 1   
    38    17    38 1   
    39    19    39 1   
    40    19    40 1   
    41    20    41 1   
    42    21    22 1   
    43    21    42 1   
    44    21    43 1   
    45    22    24 1   
    46    24    25 ar  
    47    25    26 ar  
    48    26    44 1   
    49    27    45 1   
    50    28    29 ar  
    51    28    46 1   
    52    29    47 1   
    53    48    50 1   
    54    48    51 1   
    55    48    52 1   
@<TRIPOS>SUBSTRUCTURE
     1 WBN         1 TEMP              0 ****  ****    0 ROOT
