@<TRIPOS>MOLECULE
WBP
   25    26     1     0     0
SMALL
No Charge or Current Charge


@<TRIPOS>ATOM
      1 OB2         48.9980    -3.0320    22.4460 oh         1 WBP      -0.535100
      2 CB2         49.9370    -2.3830    21.7070 ca         1 WBP       0.168100
      3 CB3         50.8900    -3.1520    21.0210 ca         1 WBP      -0.152000
      4 CB4         51.8740    -2.5300    20.2370 ca         1 WBP      -0.070000
      5 CB5         51.9050    -1.1310    20.1440 ca         1 WBP      -0.154000
      6 CB6         50.9590    -0.3570    20.8370 ca         1 WBP      -0.056000
      7 CB1         49.9510    -0.9620    21.6330 cp         1 WBP      -0.121000
      8 CA1         48.9980    -0.0840    22.4030 cp         1 WBP      -0.064000
      9 CA6         49.5180     1.0180    23.1290 ca         1 WBP      -0.091000
     10 CA5         48.6810     1.8840    23.8530 ca         1 WBP      -0.114000
     11 CA4         47.2930     1.6750    23.8650 ca         1 WBP      -0.154000
     12 CA3         46.7470     0.5970    23.1540 ca         1 WBP       0.041100
     13 OA3         45.3910     0.3930    23.1570 oh         1 WBP      -0.558100
     14 CA2         47.5860    -0.2790    22.4310 ca         1 WBP       0.125100
     15 OA2         46.9840    -1.3010    21.7550 oh         1 WBP      -0.522100
     16 H1          48.2130    -2.4330    22.4600 ho         1 WBP       0.471000
     17 H2          50.8640    -4.2360    21.0930 ha         1 WBP       0.127000
     18 H3          52.6090    -3.1300    19.7040 ha         1 WBP       0.112000
     19 H4          52.6660    -0.6430    19.5390 ha         1 WBP       0.115000
     20 H5          51.0030     0.7260    20.7550 ha         1 WBP       0.113000
     21 H6          50.5910     1.1980    23.1390 ha         1 WBP       0.125000
     22 H7          49.1100     2.7190    24.4030 ha         1 WBP       0.120000
     23 H8          46.6530     2.3530    24.4250 ha         1 WBP       0.115000
     24 H9          44.9660     1.0890    23.7070 ho         1 WBP       0.476000
     25 H10         46.0150    -1.1540    21.8660 ho         1 WBP       0.482000
@<TRIPOS>BOND
     1     1     2 1   
     2     1    16 1   
     3     2     3 ar  
     4     2     7 ar  
     5     3     4 ar  
     6     3    17 1   
     7     4     5 ar  
     8     4    18 1   
     9     5     6 ar  
    10     5    19 1   
    11     6     7 ar  
    12     6    20 1   
    13     7     8 1   
    14     8     9 ar  
    15     8    14 ar  
    16     9    10 ar  
    17     9    21 1   
    18    10    11 ar  
    19    10    22 1   
    20    11    12 ar  
    21    11    23 1   
    22    12    13 1   
    23    12    14 ar  
    24    13    24 1   
    25    14    15 1   
    26    15    25 1   
@<TRIPOS>SUBSTRUCTURE
     1 WBP         1 TEMP              0 ****  ****    0 ROOT
