@<TRIPOS>MOLECULE
WBP
   25    26     1     0     0
SMALL
abcg2


@<TRIPOS>ATOM
      1 OB2         49.3070    -2.9300    22.8500 oh         1 WBP      -0.535100
      2 CB2         50.0340    -2.3070    21.9010 ca         1 WBP       0.168100
      3 CB3         50.9090    -3.0870    21.1490 ca         1 WBP      -0.152000
      4 CB4         51.6980    -2.5020    20.1720 ca         1 WBP      -0.070000
      5 CB5         51.6290    -1.1350    19.9380 ca         1 WBP      -0.154000
      6 CB6         50.7540    -0.3640    20.6890 ca         1 WBP      -0.056000
      7 CB1         49.9440    -0.9310    21.6690 cp         1 WBP      -0.121000
      8 CA1         49.0250    -0.0800    22.4620 cp         1 WBP      -0.064000
      9 CA6         49.5280     0.8630    23.3620 ca         1 WBP      -0.091000
     10 CA5         48.6750     1.6900    24.0680 ca         1 WBP      -0.114000
     11 CA4         47.2990     1.5860    23.8870 ca         1 WBP      -0.154000
     12 CA3         46.7850     0.6570    23.0000 ca         1 WBP       0.041100
     13 OA3         45.4650     0.4900    22.7560 oh         1 WBP      -0.558100
     14 CA2         47.6480    -0.1800    22.2790 ca         1 WBP       0.125100
     15 OA2         47.1740    -1.0760    21.3890 oh         1 WBP      -0.522100
     16 H1          48.8060    -2.2910    23.3710 ho         1 WBP       0.471000
     17 H2          50.9690    -4.1520    21.3400 ha         1 WBP       0.127000
     18 H3          52.3740    -3.1210    19.5960 ha         1 WBP       0.112000
     19 H4          52.2450    -0.6730    19.1770 ha         1 WBP       0.115000
     20 H5          50.6850     0.7020    20.5100 ha         1 WBP       0.113000
     21 H6          50.5990     0.9350    23.5030 ha         1 WBP       0.125000
     22 H7          49.0710     2.4180    24.7630 ha         1 WBP       0.120000
     23 H8          46.6250     2.2320    24.4380 ha         1 WBP       0.115000
     24 H9          44.9420     1.1500    23.2240 ho         1 WBP       0.476000
     25 H10         46.2100    -1.0500    21.3690 ho         1 WBP       0.482000
@<TRIPOS>BOND
     1     1     2 1   
     2     1    16 1   
     3     2     3 ar  
     4     2     7 ar  
     5     3     4 ar  
     6     3    17 1   
     7     4     5 ar  
     8     4    18 1   
     9     5     6 ar  
    10     5    19 1   
    11     6     7 ar  
    12     6    20 1   
    13     7     8 1   
    14     8     9 ar  
    15     8    14 ar  
    16     9    10 ar  
    17     9    21 1   
    18    10    11 ar  
    19    10    22 1   
    20    11    12 ar  
    21    11    23 1   
    22    12    13 1   
    23    12    14 ar  
    24    13    24 1   
    25    14    15 1   
    26    15    25 1   
@<TRIPOS>SUBSTRUCTURE
     1 WBP         1 TEMP              0 ****  ****    0 ROOT
