@<TRIPOS>MOLECULE
WBQ
   34    34     1     0     0
SMALL
No Charge or Current Charge


@<TRIPOS>ATOM
      1 C7          44.0640    26.5220    26.9500 c          1 WBQ       0.609100
      2 C8          44.9040    26.8500    28.1930 c3         1 WBQ      -0.150400
      3 C9          46.1740    27.6720    27.8510 c3         1 WBQ      -0.058400
      4 O1          44.4230    25.6700    26.1440 o          1 WBQ      -0.622100
      5 C1          40.7760    28.1780    26.1010 ca         1 WBQ       0.079100
      6 C5          41.7990    26.4120    24.7660 ca         1 WBQ      -0.119000
      7 C6          41.8310    27.2610    25.8960 ca         1 WBQ      -0.024000
      8 C4          40.7300    26.4800    23.8570 ca         1 WBQ      -0.120000
      9 C3          39.6850    27.3910    24.0630 ca         1 WBQ      -0.121000
     10 O3          45.4610    29.8920    30.2550 o          1 WBQ      -0.745000
     11 C2          39.7040    28.2400    25.1810 ca         1 WBQ      -0.171000
     12 O2          46.5940    31.3790    29.1880 o          1 WBQ      -0.745000
     13 C11         45.0750    30.0690    27.9150 c3         1 WBQ      -0.203400
     14 C10         45.9190    29.0240    27.1330 c3         1 WBQ      -0.054400
     15 N           42.8840    27.2450    26.8550 ns         1 WBQ      -0.139000
     16 C           39.8140    29.9750    27.5070 c3         1 WBQ       0.157900
     17 H1          44.3040    27.4120    28.9170 hc         1 WBQ       0.065200
     18 H2          45.2260    25.9070    28.6490 hc         1 WBQ       0.065200
     19 H3          46.8240    27.0610    27.2120 hc         1 WBQ       0.050200
     20 H4          46.7420    27.8510    28.7720 hc         1 WBQ       0.050200
     21 H5          42.5900    25.6930    24.5740 ha         1 WBQ       0.152000
     22 H6          40.7130    25.8230    22.9900 ha         1 WBQ       0.107000
     23 H7          38.8590    27.4400    23.3570 ha         1 WBQ       0.101000
     24 H9          38.8810    28.9360    25.3160 ha         1 WBQ       0.108000
     25 H10         45.0140    30.9320    27.2400 hc         1 WBQ       0.017200
     26 H11         44.0990    29.6120    28.1120 hc         1 WBQ       0.017200
     27 H12         46.8910    29.4730    26.8930 hc         1 WBQ       0.025700
     28 H13         45.4330    28.8320    26.1680 hc         1 WBQ       0.025700
     29 H14         42.7440    27.9050    27.6090 hn         1 WBQ       0.179000
     30 H15         40.0590    30.5130    28.4310 h1         1 WBQ       0.039700
     31 H16         39.7340    30.7100    26.6960 h1         1 WBQ       0.039700
     32 H17         38.8380    29.4920    27.6440 h1         1 WBQ       0.039700
     33 C12         45.7610    30.4860    29.2310 c          1 WBQ       0.702000
     34 O           40.8310    28.9990    27.2140 os         1 WBQ      -0.357100
@<TRIPOS>BOND
     1     1     2 1   
     2     1     4 2   
     3     1    15 1   
     4     2     3 1   
     5     2    17 1   
     6     2    18 1   
     7     3    14 1   
     8     3    19 1   
     9     3    20 1   
    10     5     7 ar  
    11     5    11 ar  
    12     5    34 1   
    13     6     7 ar  
    14     6     8 ar  
    15     6    21 1   
    16     7    15 1   
    17     8     9 ar  
    18     8    22 1   
    19     9    11 ar  
    20     9    23 1   
    21    10    33 1   
    22    11    24 1   
    23    12    33 1   
    24    13    14 1   
    25    13    25 1   
    26    13    26 1   
    27    13    33 1   
    28    14    27 1   
    29    14    28 1   
    30    15    29 1   
    31    16    30 1   
    32    16    31 1   
    33    16    32 1   
    34    16    34 1   
@<TRIPOS>SUBSTRUCTURE
     1 WBQ         1 TEMP              0 ****  ****    0 ROOT
