@<TRIPOS>MOLECULE
WBQ
   34    34     1     0     0
SMALL
abcg2


@<TRIPOS>ATOM
      1 C7          43.9610    26.6350    27.0120 c          1 WBQ       0.609100
      2 C8          44.8060    26.9820    28.2200 c3         1 WBQ      -0.150400
      3 C9          46.1160    27.6690    27.8020 c3         1 WBQ      -0.058400
      4 O1          44.3450    25.8260    26.1700 o          1 WBQ      -0.622100
      5 C1          40.6990    28.1430    26.1130 ca         1 WBQ       0.079100
      6 C5          41.8580    26.4910    24.7810 ca         1 WBQ      -0.119000
      7 C6          41.8030    27.2820    25.9250 ca         1 WBQ      -0.024000
      8 C4          40.8350    26.5520    23.8350 ca         1 WBQ      -0.120000
      9 C3          39.7550    27.3980    24.0260 ca         1 WBQ      -0.121000
     10 O3          45.3920    30.3880    30.2880 o          1 WBQ      -0.745000
     11 C2          39.6840    28.1970    25.1670 ca         1 WBQ      -0.171000
     12 O2          47.2410    30.7440    29.0740 o          1 WBQ      -0.745000
     13 C11         45.2560    30.0950    27.9100 c3         1 WBQ      -0.203400
     14 C10         45.9300    29.0030    27.0730 c3         1 WBQ      -0.054400
     15 N           42.7800    27.3050    26.9320 ns         1 WBQ      -0.139000
     16 C           39.6500    29.7810    27.5180 c3         1 WBQ       0.157900
     17 H1          44.2520    27.6070    28.9200 hc         1 WBQ       0.065200
     18 H2          45.0390    26.0440    28.7290 hc         1 WBQ       0.065200
     19 H3          46.6740    26.9830    27.1600 hc         1 WBQ       0.050200
     20 H4          46.7220    27.8230    28.6980 hc         1 WBQ       0.050200
     21 H5          42.7000    25.8350    24.6400 ha         1 WBQ       0.152000
     22 H6          40.8940    25.9300    22.9510 ha         1 WBQ       0.107000
     23 H7          38.9590    27.4470    23.2940 ha         1 WBQ       0.101000
     24 H9          38.8410    28.8560    25.3100 ha         1 WBQ       0.108000
     25 H10         45.1960    31.0080    27.3090 hc         1 WBQ       0.017200
     26 H11         44.2340    29.8150    28.1670 hc         1 WBQ       0.017200
     27 H12         46.9120    29.3600    26.7560 hc         1 WBQ       0.025700
     28 H13         45.3480    28.8410    26.1590 hc         1 WBQ       0.025700
     29 H14         42.5770    27.9460    27.6840 hn         1 WBQ       0.179000
     30 H15         39.8850    30.2580    28.4660 h1         1 WBQ       0.039700
     31 H16         39.5750    30.5350    26.7320 h1         1 WBQ       0.039700
     32 H17         38.7050    29.2410    27.6010 h1         1 WBQ       0.039700
     33 C12         46.0270    30.4350    29.2000 c          1 WBQ       0.702000
     34 O           40.7280    28.8810    27.2580 os         1 WBQ      -0.357100
@<TRIPOS>BOND
     1     1     2 1   
     2     1     4 2   
     3     1    15 1   
     4     2     3 1   
     5     2    17 1   
     6     2    18 1   
     7     3    14 1   
     8     3    19 1   
     9     3    20 1   
    10     5     7 ar  
    11     5    11 ar  
    12     5    34 1   
    13     6     7 ar  
    14     6     8 ar  
    15     6    21 1   
    16     7    15 1   
    17     8     9 ar  
    18     8    22 1   
    19     9    11 ar  
    20     9    23 1   
    21    10    33 1   
    22    11    24 1   
    23    12    33 1   
    24    13    14 1   
    25    13    25 1   
    26    13    26 1   
    27    13    33 1   
    28    14    27 1   
    29    14    28 1   
    30    15    29 1   
    31    16    30 1   
    32    16    31 1   
    33    16    32 1   
    34    16    34 1   
@<TRIPOS>SUBSTRUCTURE
     1 WBQ         1 TEMP              0 ****  ****    0 ROOT
