@<TRIPOS>MOLECULE
WBR
   54    57     1     0     0
SMALL
abcg2


@<TRIPOS>ATOM
      1 C02          4.4100     6.5110    17.0290 cc         1 WBR       0.477000
      2 N03          4.4040     5.2420    16.6570 nd         1 WBR      -0.376000
      3 C07          6.0060     7.7140    18.6020 ca         1 WBR       0.412300
      4 C10          2.5830     6.1640    19.1460 cp         1 WBR      -0.058000
      5 C11          7.1360     7.9550    17.5840 c3         1 WBR      -0.099300
      6 C13          7.2820     6.8410    16.5320 c3         1 WBR      -0.081100
      7 C15          4.1560     7.3910    20.6560 cq         1 WBR      -0.085000
      8 C16          5.3560     8.0950    20.8110 ca         1 WBR       0.396300
      9 C17          5.7520     8.7520    22.1080 c3         1 WBR      -0.131700
     10 C18          3.2020     7.2160    21.7840 cq         1 WBR      -0.038000
     11 C19          2.3730     4.9060    19.7130 ca         1 WBR      -0.085500
     12 C20          1.1790     4.2290    19.4970 ca         1 WBR      -0.106000
     13 C21          0.1800     4.8050    18.7170 ca         1 WBR      -0.096000
     14 C22          0.3830     6.0600    18.1530 ca         1 WBR      -0.106000
     15 C23          1.5790     6.7360    18.3660 ca         1 WBR      -0.085500
     16 C24          3.4980     6.3460    22.8330 ca         1 WBR      -0.092500
     17 C25          2.6010     6.1690    23.8810 ca         1 WBR      -0.111000
     18 C26          1.3960     6.8650    23.8930 ca         1 WBR      -0.103000
     19 C27          1.0940     7.7370    22.8510 ca         1 WBR      -0.111000
     20 C28          1.9910     7.9100    21.8030 ca         1 WBR      -0.092500
     21 N01          3.9290     7.2260    16.0010 na         1 WBR      -0.221700
     22 N04          3.9220     5.2170    15.3930 nd         1 WBR      -0.045000
     23 N05          3.6320     6.4060    14.9860 nc         1 WBR      -0.204800
     24 N06          6.2290     8.2260    19.8120 nb         1 WBR      -0.698000
     25 C08          4.7900     7.0550    18.3440 ca         1 WBR      -0.200500
     26 C09          3.8630     6.8840    19.3870 cp         1 WBR       0.051000
     27 C12          8.4830     8.0560    18.3230 c3         1 WBR      -0.081100
     28 C14          6.8630     9.2980    16.8780 c3         1 WBR      -0.081100
     29 C29          6.8460     7.9740    22.8480 c3         1 WBR      -0.083100
     30 H36          6.4990     6.8560    15.7790 hc         1 WBR       0.040700
     31 H34          8.2260     6.9860    16.0050 hc         1 WBR       0.040700
     32 H35          7.3030     5.8540    16.9960 hc         1 WBR       0.040700
     33 H40          6.1230     9.7520    21.8700 hc         1 WBR       0.060200
     34 H41          4.8800     8.8680    22.7500 hc         1 WBR       0.060200
     35 H42          3.1480     4.4590    20.3210 ha         1 WBR       0.112500
     36 H43          1.0290     3.2520    19.9380 ha         1 WBR       0.116000
     37 H44         -0.7510     4.2780    18.5500 ha         1 WBR       0.115000
     38 H45         -0.3920     6.5170    17.5490 ha         1 WBR       0.116000
     39 H46          1.7300     7.7170    17.9350 ha         1 WBR       0.112500
     40 H47          4.4290     5.7930    22.8190 ha         1 WBR       0.115500
     41 H48          2.8430     5.4850    24.6850 ha         1 WBR       0.115000
     42 H49          0.6970     6.7280    24.7080 ha         1 WBR       0.114000
     43 H50          0.1590     8.2820    22.8530 ha         1 WBR       0.115000
     44 H51          1.7510     8.5850    20.9910 ha         1 WBR       0.115500
     45 H17          3.7620     8.2210    15.9340 hn         1 WBR       0.384000
     46 H33          8.4910     8.8760    19.0350 hc         1 WBR       0.040700
     47 H31          8.7010     7.1320    18.8640 hc         1 WBR       0.040700
     48 H32          9.2750     8.2190    17.5900 hc         1 WBR       0.040700
     49 H37          5.9310     9.2740    16.3120 hc         1 WBR       0.040700
     50 H39          6.8020    10.1090    17.6050 hc         1 WBR       0.040700
     51 H38          7.6750     9.5200    16.1820 hc         1 WBR       0.040700
     52 H52          7.1460     8.5050    23.7530 hc         1 WBR       0.039033
     53 H54          6.4950     6.9810    23.1350 hc         1 WBR       0.039033
     54 H53          7.7260     7.8520    22.2140 hc         1 WBR       0.039033
@<TRIPOS>BOND
     1     1     2 2   
     2     1    21 1   
     3     1    25 1   
     4     2    22 1   
     5     3     5 1   
     6     3    24 ar  
     7     3    25 ar  
     8     4    11 ar  
     9     4    15 ar  
    10     4    26 1   
    11     5     6 1   
    12     5    27 1   
    13     5    28 1   
    14     6    30 1   
    15     6    31 1   
    16     6    32 1   
    17     7     8 1   
    18     7    10 1   
    19     7    26 2   
    20     8     9 1   
    21     8    24 ar  
    22     9    29 1   
    23     9    33 1   
    24     9    34 1   
    25    10    16 1   
    26    10    20 2   
    27    11    12 ar  
    28    11    35 1   
    29    12    13 ar  
    30    12    36 1   
    31    13    14 ar  
    32    13    37 1   
    33    14    15 ar  
    34    14    38 1   
    35    15    39 1   
    36    16    17 ar  
    37    16    40 1   
    38    17    18 ar  
    39    17    41 1   
    40    18    19 ar  
    41    18    42 1   
    42    19    20 ar  
    43    19    43 1   
    44    20    44 1   
    45    21    23 1   
    46    21    45 1   
    47    22    23 2   
    48    25    26 ar  
    49    27    46 1   
    50    27    47 1   
    51    27    48 1   
    52    28    49 1   
    53    28    50 1   
    54    28    51 1   
    55    29    52 1   
    56    29    53 1   
    57    29    54 1   
@<TRIPOS>SUBSTRUCTURE
     1 WBR         1 TEMP              0 ****  ****    0 ROOT
