@<TRIPOS>MOLECULE
WBR
   54    57     1     0     0
SMALL
No Charge or Current Charge


@<TRIPOS>ATOM
      1 C02          0.0000     0.0000     0.0000 cc         1 WBR       0.477000
      2 N03          0.0000     0.0000     0.0000 nd         1 WBR      -0.376000
      3 C07          0.0000     0.0000     0.0000 ca         1 WBR       0.412300
      4 C10          0.0000     0.0000     0.0000 cp         1 WBR      -0.058000
      5 C11          0.0000     0.0000     0.0000 c3         1 WBR      -0.099300
      6 C13          0.0000     0.0000     0.0000 c3         1 WBR      -0.081100
      7 C15          0.0000     0.0000     0.0000 cq         1 WBR      -0.085000
      8 C16          0.0000     0.0000     0.0000 ca         1 WBR       0.396300
      9 C17          0.0000     0.0000     0.0000 c3         1 WBR      -0.131700
     10 C18          0.0000     0.0000     0.0000 cq         1 WBR      -0.038000
     11 C19          0.0000     0.0000     0.0000 ca         1 WBR      -0.085500
     12 C20          0.0000     0.0000     0.0000 ca         1 WBR      -0.106000
     13 C21          0.0000     0.0000     0.0000 ca         1 WBR      -0.096000
     14 C22          0.0000     0.0000     0.0000 ca         1 WBR      -0.106000
     15 C23          0.0000     0.0000     0.0000 ca         1 WBR      -0.085500
     16 C24          0.0000     0.0000     0.0000 ca         1 WBR      -0.092500
     17 C25          0.0000     0.0000     0.0000 ca         1 WBR      -0.111000
     18 C26          0.0000     0.0000     0.0000 ca         1 WBR      -0.103000
     19 C27          0.0000     0.0000     0.0000 ca         1 WBR      -0.111000
     20 C28          0.0000     0.0000     0.0000 ca         1 WBR      -0.092500
     21 N01          0.0000     0.0000     0.0000 na         1 WBR      -0.221700
     22 N04          0.0000     0.0000     0.0000 nd         1 WBR      -0.045000
     23 N05          0.0000     0.0000     0.0000 nc         1 WBR      -0.204800
     24 N06          0.0000     0.0000     0.0000 nb         1 WBR      -0.698000
     25 C08          0.0000     0.0000     0.0000 ca         1 WBR      -0.200500
     26 C09          0.0000     0.0000     0.0000 cp         1 WBR       0.051000
     27 C12          0.0000     0.0000     0.0000 c3         1 WBR      -0.081100
     28 C14          0.0000     0.0000     0.0000 c3         1 WBR      -0.081100
     29 C29          0.0000     0.0000     0.0000 c3         1 WBR      -0.083100
     30 H36          0.0000     0.0000     0.0000 hc         1 WBR       0.040700
     31 H34          0.0000     0.0000     0.0000 hc         1 WBR       0.040700
     32 H35          0.0000     0.0000     0.0000 hc         1 WBR       0.040700
     33 H40          0.0000     0.0000     0.0000 hc         1 WBR       0.060200
     34 H41          0.0000     0.0000     0.0000 hc         1 WBR       0.060200
     35 H42          0.0000     0.0000     0.0000 ha         1 WBR       0.112500
     36 H43          0.0000     0.0000     0.0000 ha         1 WBR       0.116000
     37 H44          0.0000     0.0000     0.0000 ha         1 WBR       0.115000
     38 H45          0.0000     0.0000     0.0000 ha         1 WBR       0.116000
     39 H46          0.0000     0.0000     0.0000 ha         1 WBR       0.112500
     40 H47          0.0000     0.0000     0.0000 ha         1 WBR       0.115500
     41 H48          0.0000     0.0000     0.0000 ha         1 WBR       0.115000
     42 H49          0.0000     0.0000     0.0000 ha         1 WBR       0.114000
     43 H50          0.0000     0.0000     0.0000 ha         1 WBR       0.115000
     44 H51          0.0000     0.0000     0.0000 ha         1 WBR       0.115500
     45 H17          0.0000     0.0000     0.0000 hn         1 WBR       0.384000
     46 H33          0.0000     0.0000     0.0000 hc         1 WBR       0.040700
     47 H31          0.0000     0.0000     0.0000 hc         1 WBR       0.040700
     48 H32          0.0000     0.0000     0.0000 hc         1 WBR       0.040700
     49 H37          0.0000     0.0000     0.0000 hc         1 WBR       0.040700
     50 H39          0.0000     0.0000     0.0000 hc         1 WBR       0.040700
     51 H38          0.0000     0.0000     0.0000 hc         1 WBR       0.040700
     52 H52          0.0000     0.0000     0.0000 hc         1 WBR       0.039033
     53 H54          0.0000     0.0000     0.0000 hc         1 WBR       0.039033
     54 H53          0.0000     0.0000     0.0000 hc         1 WBR       0.039033
@<TRIPOS>BOND
     1     1     2 2   
     2     1    21 1   
     3     1    25 1   
     4     2    22 1   
     5     3     5 1   
     6     3    24 ar  
     7     3    25 ar  
     8     4    11 ar  
     9     4    15 ar  
    10     4    26 1   
    11     5     6 1   
    12     5    27 1   
    13     5    28 1   
    14     6    30 1   
    15     6    31 1   
    16     6    32 1   
    17     7     8 1   
    18     7    10 1   
    19     7    26 2   
    20     8     9 1   
    21     8    24 ar  
    22     9    29 1   
    23     9    33 1   
    24     9    34 1   
    25    10    16 1   
    26    10    20 2   
    27    11    12 ar  
    28    11    35 1   
    29    12    13 ar  
    30    12    36 1   
    31    13    14 ar  
    32    13    37 1   
    33    14    15 ar  
    34    14    38 1   
    35    15    39 1   
    36    16    17 ar  
    37    16    40 1   
    38    17    18 ar  
    39    17    41 1   
    40    18    19 ar  
    41    18    42 1   
    42    19    20 ar  
    43    19    43 1   
    44    20    44 1   
    45    21    23 1   
    46    21    45 1   
    47    22    23 2   
    48    25    26 ar  
    49    27    46 1   
    50    27    47 1   
    51    27    48 1   
    52    28    49 1   
    53    28    50 1   
    54    28    51 1   
    55    29    52 1   
    56    29    53 1   
    57    29    54 1   
@<TRIPOS>SUBSTRUCTURE
     1 WBR         1 TEMP              0 ****  ****    0 ROOT
