@<TRIPOS>MOLECULE
WBS
   55    60     1     0     0
SMALL
abcg2


@<TRIPOS>ATOM
      1 C10         -0.7780     6.9290   -49.1990 ca         1 WBS      -0.055000
      2 N12         -4.0750     6.5710   -48.1170 nu         1 WBS      -0.797900
      3 C13         -5.3870     6.9960   -47.9980 cc         1 WBS       0.506900
      4 C17         -6.1900     7.4890   -49.0430 cc         1 WBS      -0.256000
      5 C20         -3.3320     5.1000   -43.5900 cc         1 WBS      -0.192000
      6 C21         -4.6030     5.3240   -42.8960 ca         1 WBS       0.013000
      7 C22         -5.2150     4.2930   -42.1800 ca         1 WBS      -0.105500
      8 C24         -7.0480     5.7420   -41.6010 ca         1 WBS      -0.116000
      9 C26         -5.2370     6.5650   -42.9550 ca         1 WBS      -0.105500
     10 C28         -1.8140     4.0240   -41.7810 ca         1 WBS      -0.126500
     11 C02         -1.1590     5.0490   -46.4260 c          1 WBS       0.584000
     12 C03         -1.9860     5.6260   -47.4370 cc         1 WBS      -0.352400
     13 C04         -1.4320     5.7650   -48.8020 ca         1 WBS      -0.060800
     14 C05         -1.5540     4.7330   -49.7330 ca         1 WBS      -0.055000
     15 C06         -1.0460     4.8530   -51.0150 ca         1 WBS      -0.182500
     16 C07         -0.3950     6.0250   -51.3970 ca         1 WBS       0.144100
     17 C09         -0.2620     7.0650   -50.4790 ca         1 WBS      -0.182500
     18 C11         -3.2820     6.0330   -47.1590 cd         1 WBS       0.456000
     19 C16         -7.3880     7.7690   -48.4280 cd         1 WBS      -0.128000
     20 C19         -3.0580     5.3690   -44.9130 cd         1 WBS       0.250000
     21 C23         -6.4220     4.5020   -41.5320 ca         1 WBS      -0.113000
     22 C25         -6.4530     6.7710   -42.3160 ca         1 WBS      -0.113000
     23 C27         -2.1250     4.5060   -43.1320 cc         1 WBS       0.343500
     24 C29         -1.0350     2.8800   -41.6080 ca         1 WBS      -0.083000
     25 C30         -0.7170     2.4310   -40.3350 ca         1 WBS      -0.119000
     26 C31         -1.1730     3.1190   -39.2180 ca         1 WBS      -0.104000
     27 C32         -1.9440     4.2620   -39.3820 ca         1 WBS      -0.119000
     28 C33         -2.2640     4.7120   -40.6550 ca         1 WBS      -0.083000
     29 N14         -6.0390     6.9790   -46.8500 nd         1 WBS      -0.606800
     30 N15         -7.2510     7.4510   -47.1370 na         1 WBS       0.010800
     31 N18         -3.7990     5.9060   -45.9140 na         1 WBS      -0.808000
     32 N34         -1.2160     4.4250   -44.0840 nd         1 WBS      -0.468800
     33 N35         -1.7960     4.9520   -45.1700 n          1 WBS       0.135000
     34 O08          0.0800     6.0960   -52.6540 oh         1 WBS      -0.533100
     35 H101        -0.6690     7.7460   -48.4970 ha         1 WBS       0.119000
     36 H121        -3.6650     6.6500   -49.0360 hn         1 WBS       0.536000
     37 H171        -5.9300     7.6170   -50.0800 ha         1 WBS       0.158000
     38 H221        -4.7420     3.3190   -42.1350 ha         1 WBS       0.118000
     39 H241        -7.9920     5.9030   -41.0980 ha         1 WBS       0.110000
     40 H261        -4.7690     7.3850   -43.4870 ha         1 WBS       0.118000
     41 H051        -2.0600     3.8190   -49.4490 ha         1 WBS       0.119000
     42 H061        -1.1510     4.0410   -51.7240 ha         1 WBS       0.121000
     43 H091         0.2420     7.9820   -50.7630 ha         1 WBS       0.121000
     44 H161        -8.3090     8.1660   -48.8220 h4         1 WBS       0.163000
     45 H231        -6.8820     3.6920   -40.9800 ha         1 WBS       0.110000
     46 H251        -6.9290     7.7410   -42.3720 ha         1 WBS       0.110000
     47 H291        -0.6840     2.3350   -42.4750 ha         1 WBS       0.124000
     48 H301        -0.1160     1.5390   -40.2160 ha         1 WBS       0.112000
     49 H311        -0.9260     2.7680   -38.2240 ha         1 WBS       0.110000
     50 H321        -2.2960     4.8090   -38.5170 ha         1 WBS       0.112000
     51 H331        -2.8530     5.6130   -40.7690 ha         1 WBS       0.124000
     52 H151        -7.9390     7.5310   -46.4060 hn         1 WBS       0.385000
     53 H181        -4.7600     6.2130   -45.7460 hn         1 WBS       0.568000
     54 H081         0.5040     6.9480   -52.8090 ho         1 WBS       0.465000
     55 O01         -0.0160     4.6520   -46.5560 o          1 WBS      -0.478000
@<TRIPOS>BOND
     1     1    13 ar  
     2     1    17 ar  
     3     1    35 1   
     4     2     3 1   
     5     2    18 1   
     6     2    36 1   
     7     3     4 1   
     8     3    29 2   
     9     4    19 2   
    10     4    37 1   
    11     5     6 1   
    12     5    20 2   
    13     5    23 1   
    14     6     7 ar  
    15     6     9 ar  
    16     7    21 ar  
    17     7    38 1   
    18     8    21 ar  
    19     8    22 ar  
    20     8    39 1   
    21     9    22 ar  
    22     9    40 1   
    23    10    23 1   
    24    10    24 ar  
    25    10    28 ar  
    26    11    12 1   
    27    11    33 1   
    28    11    55 2   
    29    12    13 1   
    30    12    18 2   
    31    13    14 ar  
    32    14    15 ar  
    33    14    41 1   
    34    15    16 ar  
    35    15    42 1   
    36    16    17 ar  
    37    16    34 1   
    38    17    43 1   
    39    18    31 1   
    40    19    30 1   
    41    19    44 1   
    42    20    31 1   
    43    20    33 1   
    44    21    45 1   
    45    22    46 1   
    46    23    32 2   
    47    24    25 ar  
    48    24    47 1   
    49    25    26 ar  
    50    25    48 1   
    51    26    27 ar  
    52    26    49 1   
    53    27    28 ar  
    54    27    50 1   
    55    28    51 1   
    56    29    30 1   
    57    30    52 1   
    58    31    53 1   
    59    32    33 1   
    60    34    54 1   
@<TRIPOS>SUBSTRUCTURE
     1 WBS         1 TEMP              0 ****  ****    0 ROOT
