@<TRIPOS>MOLECULE
WBS
   55    60     1     0     0
SMALL
No Charge or Current Charge


@<TRIPOS>ATOM
      1 C10         -1.1100     6.9880   -49.2370 ca         1 WBS      -0.055000
      2 N12         -4.0390     6.5530   -47.9060 nu         1 WBS      -0.797900
      3 C13         -5.3030     7.0490   -47.7890 cc         1 WBS       0.506900
      4 C17         -5.9590     7.5920   -48.8910 cc         1 WBS      -0.256000
      5 C20         -3.0810     5.1080   -43.5570 cc         1 WBS      -0.192000
      6 C21         -4.4400     5.3470   -43.0380 ca         1 WBS       0.013000
      7 C22         -5.0860     4.3530   -42.2740 ca         1 WBS      -0.105500
      8 C24         -7.0500     5.7690   -42.0300 ca         1 WBS      -0.116000
      9 C26         -5.1190     6.5610   -43.2820 ca         1 WBS      -0.105500
     10 C28         -1.7850     3.8930   -41.6610 ca         1 WBS      -0.126500
     11 C02         -0.9870     4.8570   -46.4320 c          1 WBS       0.584000
     12 C03         -1.9100     5.5270   -47.3850 cc         1 WBS      -0.352400
     13 C04         -1.5200     5.7190   -48.7830 ca         1 WBS      -0.060800
     14 C05         -1.5520     4.6360   -49.6800 ca         1 WBS      -0.055000
     15 C06         -1.1840     4.8220   -51.0240 ca         1 WBS      -0.182500
     16 C07         -0.7810     6.0880   -51.4740 ca         1 WBS       0.144100
     17 C09         -0.7430     7.1720   -50.5830 ca         1 WBS      -0.182500
     18 C11         -3.1770     5.9820   -47.0410 cd         1 WBS       0.456000
     19 C16         -7.1870     7.9930   -48.4550 cd         1 WBS      -0.128000
     20 C19         -2.7230     5.2840   -44.8580 cd         1 WBS       0.250000
     21 C23         -6.3830     4.5610   -41.7740 ca         1 WBS      -0.113000
     22 C25         -6.4160     6.7700   -42.7820 ca         1 WBS      -0.113000
     23 C27         -1.9810     4.3380   -43.0560 cc         1 WBS       0.343500
     24 C29         -0.8220     2.9010   -41.3590 ca         1 WBS      -0.083000
     25 C30         -0.5940     2.4940   -40.0330 ca         1 WBS      -0.119000
     26 C31         -1.3050     3.0890   -38.9810 ca         1 WBS      -0.104000
     27 C32         -2.2330     4.1040   -39.2580 ca         1 WBS      -0.119000
     28 C33         -2.4630     4.5110   -40.5830 ca         1 WBS      -0.083000
     29 N14         -5.9990     7.0620   -46.6780 nd         1 WBS      -0.606800
     30 N15         -7.1970     7.6600   -47.0900 na         1 WBS       0.010800
     31 N18         -3.6170     5.8370   -45.7530 na         1 WBS      -0.808000
     32 N34         -1.0200     4.1500   -43.9650 nd         1 WBS      -0.468800
     33 N35         -1.5040     4.7610   -45.1360 n          1 WBS       0.135000
     34 O08         -0.4260     6.2580   -52.7780 oh         1 WBS      -0.533100
     35 H101        -1.0770     7.8280   -48.5470 ha         1 WBS       0.119000
     36 H121        -3.6650     6.6160   -48.8450 hn         1 WBS       0.536000
     37 H171        -5.5570     7.6730   -49.8950 ha         1 WBS       0.158000
     38 H221        -4.5900     3.4050   -42.0810 ha         1 WBS       0.118000
     39 H241        -8.0530     5.9320   -41.6420 ha         1 WBS       0.110000
     40 H261        -4.6320     7.3630   -43.8320 ha         1 WBS       0.118000
     41 H051        -1.8650     3.6530   -49.3350 ha         1 WBS       0.119000
     42 H061        -1.2120     3.9830   -51.7150 ha         1 WBS       0.121000
     43 H091        -0.4300     8.1560   -50.9220 ha         1 WBS       0.121000
     44 H161        -8.0200     8.4640   -48.9670 h4         1 WBS       0.163000
     45 H231        -6.8720     3.7830   -41.1910 ha         1 WBS       0.110000
     46 H251        -6.9250     7.7120   -42.9720 ha         1 WBS       0.110000
     47 H291        -0.2550     2.4220   -42.1550 ha         1 WBS       0.124000
     48 H301         0.1380     1.7170   -39.8220 ha         1 WBS       0.112000
     49 H311        -1.1270     2.7770   -37.9550 ha         1 WBS       0.110000
     50 H321        -2.7680     4.5870   -38.4420 ha         1 WBS       0.112000
     51 H331        -3.1520     5.3330   -40.7560 ha         1 WBS       0.124000
     52 H151        -7.9690     7.8180   -46.4420 hn         1 WBS       0.385000
     53 H181        -4.5560     6.1500   -45.5180 hn         1 WBS       0.568000
     54 H081        -0.1710     7.1960   -52.9100 ho         1 WBS       0.465000
     55 O01          0.1180     4.4250   -46.7470 o          1 WBS      -0.478000
@<TRIPOS>BOND
     1     1    13 ar  
     2     1    17 ar  
     3     1    35 1   
     4     2     3 1   
     5     2    18 1   
     6     2    36 1   
     7     3     4 1   
     8     3    29 2   
     9     4    19 2   
    10     4    37 1   
    11     5     6 1   
    12     5    20 2   
    13     5    23 1   
    14     6     7 ar  
    15     6     9 ar  
    16     7    21 ar  
    17     7    38 1   
    18     8    21 ar  
    19     8    22 ar  
    20     8    39 1   
    21     9    22 ar  
    22     9    40 1   
    23    10    23 1   
    24    10    24 ar  
    25    10    28 ar  
    26    11    12 1   
    27    11    33 1   
    28    11    55 2   
    29    12    13 1   
    30    12    18 2   
    31    13    14 ar  
    32    14    15 ar  
    33    14    41 1   
    34    15    16 ar  
    35    15    42 1   
    36    16    17 ar  
    37    16    34 1   
    38    17    43 1   
    39    18    31 1   
    40    19    30 1   
    41    19    44 1   
    42    20    31 1   
    43    20    33 1   
    44    21    45 1   
    45    22    46 1   
    46    23    32 2   
    47    24    25 ar  
    48    24    47 1   
    49    25    26 ar  
    50    25    48 1   
    51    26    27 ar  
    52    26    49 1   
    53    27    28 ar  
    54    27    50 1   
    55    28    51 1   
    56    29    30 1   
    57    30    52 1   
    58    31    53 1   
    59    32    33 1   
    60    34    54 1   
@<TRIPOS>SUBSTRUCTURE
     1 WBS         1 TEMP              0 ****  ****    0 ROOT
