@<TRIPOS>MOLECULE
WBT
   58    62     1     0     0
SMALL
bcc


@<TRIPOS>ATOM
      1 F1           3.1900    -2.0470     4.5050 f          1 WBT      -0.142900
      2 C2           2.1860    -1.3380     3.9670 ca         1 WBT       0.169900
      3 C3           1.1940    -0.8850     4.8120 ca         1 WBT      -0.232000
      4 C4           0.1190    -0.1510     4.2890 ca         1 WBT       0.198600
      5 C5           0.0940     0.0550     2.8990 ca         1 WBT      -0.157000
      6 C6           1.1120    -0.4080     2.0820 ca         1 WBT      -0.091600
      7 C7           2.1890    -1.1220     2.6060 ca         1 WBT      -0.201000
      8 C8           0.9900    -0.1420     0.6130 c          1 WBT       0.686700
      9 O9          -0.1020    -0.0930     0.0710 o          1 WBT      -0.592100
     10 N10          2.1680     0.0470    -0.0250 ns         1 WBT      -0.462100
     11 C11          2.4100     0.2450    -1.3910 ca         1 WBT       0.079600
     12 C12          3.7680     0.2960    -1.7770 ca         1 WBT      -0.205000
     13 C13          4.1390     0.4720    -3.0910 ca         1 WBT      -0.049000
     14 C14          3.1500     0.6010    -4.0710 ca         1 WBT      -0.118800
     15 C15          3.1460     0.7840    -5.4880 cc         1 WBT      -0.180200
     16 C16          1.8370     0.8410    -5.8680 cd         1 WBT      -0.113100
     17 N17          1.0210     0.7120    -4.7740 na         1 WBT      -0.061400
     18 C18         -0.4210     0.6710    -4.7840 c3         1 WBT       0.050300
     19 C19         -0.9670    -0.7540    -4.6240 c3         1 WBT      -0.060100
     20 C20         -2.4510    -0.7300    -4.4170 ca         1 WBT      -0.047300
     21 C21         -3.3440    -0.8560    -5.4760 ca         1 WBT      -0.243800
     22 C22         -4.7060    -0.7840    -5.2240 ca         1 WBT       0.400200
     23 N23         -5.2210    -0.5970    -4.0140 nb         1 WBT      -0.665000
     24 C24         -4.3690    -0.4750    -3.0020 ca         1 WBT       0.400200
     25 C25         -2.9920    -0.5330    -3.1500 ca         1 WBT      -0.243800
     26 C26          1.8020     0.5560    -3.6630 ca         1 WBT      -0.026200
     27 C27          1.4070     0.3830    -2.3370 ca         1 WBT      -0.173000
     28 N28         -0.8650     0.3700     5.1060 nh         1 WBT      -0.652000
     29 C29         -0.8210     0.0690     6.5260 c6         1 WBT       0.164800
     30 C30         -1.7360     0.9990     7.3010 c6         1 WBT       0.121900
     31 O31         -3.0530     0.9810     6.8070 os         1 WBT      -0.392600
     32 C32         -3.0600     1.3910     5.4600 c6         1 WBT       0.121900
     33 C33         -2.2240     0.4750     4.5890 c6         1 WBT       0.164800
     34 H3           1.2710    -1.1270     5.8620 ha         1 WBT       0.152000
     35 H5          -0.7130     0.6060     2.4380 ha         1 WBT       0.155000
     36 H7           2.9780    -1.5360     1.9920 ha         1 WBT       0.153000
     37 H10          2.9920     0.0770     0.5550 hn         1 WBT       0.323500
     38 H12          4.5350     0.1890    -1.0190 ha         1 WBT       0.126000
     39 H13          5.1890     0.5060    -3.3530 ha         1 WBT       0.134000
     40 H15          4.0000     0.8690    -6.1410 ha         1 WBT       0.156000
     41 H16          1.4100     0.9740    -6.8500 h4         1 WBT       0.161000
     42 H181        -0.7980     1.3120    -3.9840 h1         1 WBT       0.062700
     43 H182        -0.7680     1.1030    -5.7220 h1         1 WBT       0.062700
     44 H191        -0.7120    -1.3380    -5.5100 hc         1 WBT       0.066700
     45 H192        -0.4880    -1.2360    -3.7690 hc         1 WBT       0.066700
     46 H21         -2.9900    -1.0150    -6.4870 ha         1 WBT       0.146500
     47 H22         -5.4120    -0.8870    -6.0400 h4         1 WBT       0.019100
     48 H24         -4.8010    -0.3250    -2.0190 h4         1 WBT       0.019100
     49 H25         -2.3530    -0.4340    -2.2810 ha         1 WBT       0.146500
     50 H27          0.3660     0.3570    -2.0580 ha         1 WBT       0.165000
     51 H291        -1.0900    -0.9780     6.7210 h1         1 WBT       0.052700
     52 H292         0.1880     0.2280     6.9070 h1         1 WBT       0.052700
     53 H301        -1.7650     0.6860     8.3450 h1         1 WBT       0.055950
     54 H302        -1.3290     2.0200     7.2640 h1         1 WBT       0.055950
     55 H321        -4.0930     1.3770     5.1110 h1         1 WBT       0.055950
     56 H322        -2.6860     2.4210     5.3720 h1         1 WBT       0.055950
     57 H331        -2.2240     0.8950     3.5860 h1         1 WBT       0.052700
     58 H332        -2.6910    -0.5170     4.5280 h1         1 WBT       0.052700
@<TRIPOS>BOND
     1     1     2 1   
     2     2     3 ar  
     3     2     7 ar  
     4     3     4 ar  
     5     3    34 1   
     6     4     5 ar  
     7     4    28 1   
     8     5     6 ar  
     9     5    35 1   
    10     6     7 ar  
    11     6     8 1   
    12     7    36 1   
    13     8     9 2   
    14     8    10 1   
    15    10    11 1   
    16    10    37 1   
    17    11    12 ar  
    18    11    27 ar  
    19    12    13 ar  
    20    12    38 1   
    21    13    14 ar  
    22    13    39 1   
    23    14    15 1   
    24    14    26 ar  
    25    15    16 2   
    26    15    40 1   
    27    16    17 1   
    28    16    41 1   
    29    17    18 1   
    30    17    26 1   
    31    18    19 1   
    32    18    42 1   
    33    18    43 1   
    34    19    20 1   
    35    19    44 1   
    36    19    45 1   
    37    20    21 ar  
    38    20    25 ar  
    39    21    22 ar  
    40    21    46 1   
    41    22    23 ar  
    42    22    47 1   
    43    23    24 ar  
    44    24    25 ar  
    45    24    48 1   
    46    25    49 1   
    47    26    27 ar  
    48    27    50 1   
    49    28    29 1   
    50    28    33 1   
    51    29    30 1   
    52    29    51 1   
    53    29    52 1   
    54    30    31 1   
    55    30    53 1   
    56    30    54 1   
    57    31    32 1   
    58    32    33 1   
    59    32    55 1   
    60    32    56 1   
    61    33    57 1   
    62    33    58 1   
@<TRIPOS>SUBSTRUCTURE
     1 WBT         1 TEMP              0 ****  ****    0 ROOT
