@<TRIPOS>MOLECULE
WBT
   58    62     1     0     0
SMALL
No Charge or Current Charge


@<TRIPOS>ATOM
      1 F1           3.8890    -0.3510     4.7870 f          1 WBT      -0.178000
      2 C2           2.6720    -0.2120     4.2190 ca         1 WBT       0.205000
      3 C3           1.5400    -0.1090     5.0330 ca         1 WBT      -0.214000
      4 C4           0.2700     0.0310     4.4530 ca         1 WBT       0.337000
      5 C5           0.1570     0.0700     3.0510 ca         1 WBT      -0.139000
      6 C6           1.2910    -0.0310     2.2090 ca         1 WBT      -0.091600
      7 C7           2.5610    -0.1750     2.8220 ca         1 WBT      -0.183000
      8 C8           1.1130     0.0190     0.6970 c          1 WBT       0.619700
      9 O9          -0.0000     0.1400     0.1930 o          1 WBT      -0.592100
     10 N10          2.2820    -0.0860    -0.0490 ns         1 WBT      -0.136000
     11 C11          2.5350    -0.0670    -1.4480 ca         1 WBT      -0.013000
     12 C12          3.8640    -0.3190    -1.8710 ca         1 WBT      -0.187000
     13 C13          4.2040    -0.3200    -3.2400 ca         1 WBT      -0.031000
     14 C14          3.1870    -0.0610    -4.1640 ca         1 WBT      -0.118800
     15 C15          3.2280     0.0020    -5.5950 cc         1 WBT      -0.230200
     16 C16          1.9390     0.2920    -6.0280 cd         1 WBT      -0.163100
     17 N17          1.1030     0.4130    -4.8940 na         1 WBT      -0.090700
     18 C18         -0.3400     0.7000    -4.8460 c3         1 WBT       0.079600
     19 C19         -1.1990    -0.5670    -4.6620 c3         1 WBT      -0.060100
     20 C20         -2.6790    -0.2370    -4.5450 ca         1 WBT      -0.047300
     21 C21         -3.5210    -0.2470    -5.6700 ca         1 WBT      -0.160500
     22 C22         -4.8820     0.0700    -5.5150 ca         1 WBT       0.334900
     23 N23         -5.4330     0.3900    -4.3210 nb         1 WBT      -0.665000
     24 C24         -4.6220     0.4020    -3.2380 ca         1 WBT       0.334900
     25 C25         -3.2510     0.0980    -3.3050 ca         1 WBT      -0.160500
     26 C26          1.9000     0.1900    -3.7770 ca         1 WBT      -0.026200
     27 C27          1.5370     0.1960    -2.4200 ca         1 WBT      -0.155000
     28 N28         -0.8900     0.1360     5.2570 nh         1 WBT      -0.790400
     29 C29         -0.8300     0.7210     6.6380 c6         1 WBT       0.164800
     30 C30         -2.2210     1.2270     7.1230 c6         1 WBT       0.145100
     31 O31         -3.2230     0.1930     6.9780 os         1 WBT      -0.439000
     32 C32         -3.3760    -0.2410     5.6060 c6         1 WBT       0.145100
     33 C33         -2.0360    -0.8110     5.0520 c6         1 WBT       0.164800
     34 H3           1.6570    -0.1520     6.1100 ha         1 WBT       0.134000
     35 H5          -0.8280     0.1960     2.6120 ha         1 WBT       0.137000
     36 H7           3.4720    -0.2580     2.2370 ha         1 WBT       0.135000
     37 H10          3.1170    -0.1970     0.5090 hn         1 WBT       0.157000
     38 H12          4.6390    -0.5190    -1.1350 ha         1 WBT       0.108000
     39 H13          5.2230    -0.5150    -3.5670 ha         1 WBT       0.116000
     40 H15          4.0940    -0.1500    -6.2370 ha         1 WBT       0.206000
     41 H16          1.5590     0.4180    -7.0380 h4         1 WBT       0.211000
     42 H181        -0.5340     1.3990    -4.0230 h1         1 WBT       0.062700
     43 H182        -0.6290     1.1990    -5.7800 h1         1 WBT       0.062700
     44 H191        -1.0240    -1.2440    -5.5070 hc         1 WBT       0.066700
     45 H192        -0.8650    -1.1040    -3.7660 hc         1 WBT       0.066700
     46 H21         -3.1350    -0.4950    -6.6550 ha         1 WBT       0.128500
     47 H22         -5.5520     0.0670    -6.3740 h4         1 WBT       0.019100
     48 H24         -5.0850     0.6630    -2.2870 h4         1 WBT       0.019100
     49 H25         -2.6490     0.1250    -2.4010 ha         1 WBT       0.128500
     50 H27          0.5090     0.4040    -2.1440 ha         1 WBT       0.147000
     51 H291        -0.4610    -0.0330     7.3490 h1         1 WBT       0.052700
     52 H292        -0.1280     1.5670     6.6630 h1         1 WBT       0.052700
     53 H301        -2.1610     1.5260     8.1790 h1         1 WBT       0.055950
     54 H302        -2.5220     2.1070     6.5370 h1         1 WBT       0.055950
     55 H321        -4.1580    -1.0120     5.5570 h1         1 WBT       0.055950
     56 H322        -3.7010     0.6120     4.9920 h1         1 WBT       0.055950
     57 H331        -2.1740    -1.0370     3.9850 h1         1 WBT       0.052700
     58 H332        -1.8240    -1.7640     5.5580 h1         1 WBT       0.052700
@<TRIPOS>BOND
     1     1     2 1   
     2     2     3 ar  
     3     2     7 ar  
     4     3     4 ar  
     5     3    34 1   
     6     4     5 ar  
     7     4    28 1   
     8     5     6 ar  
     9     5    35 1   
    10     6     7 ar  
    11     6     8 1   
    12     7    36 1   
    13     8     9 2   
    14     8    10 1   
    15    10    11 1   
    16    10    37 1   
    17    11    12 ar  
    18    11    27 ar  
    19    12    13 ar  
    20    12    38 1   
    21    13    14 ar  
    22    13    39 1   
    23    14    15 1   
    24    14    26 ar  
    25    15    16 2   
    26    15    40 1   
    27    16    17 1   
    28    16    41 1   
    29    17    18 1   
    30    17    26 1   
    31    18    19 1   
    32    18    42 1   
    33    18    43 1   
    34    19    20 1   
    35    19    44 1   
    36    19    45 1   
    37    20    21 ar  
    38    20    25 ar  
    39    21    22 ar  
    40    21    46 1   
    41    22    23 ar  
    42    22    47 1   
    43    23    24 ar  
    44    24    25 ar  
    45    24    48 1   
    46    25    49 1   
    47    26    27 ar  
    48    27    50 1   
    49    28    29 1   
    50    28    33 1   
    51    29    30 1   
    52    29    51 1   
    53    29    52 1   
    54    30    31 1   
    55    30    53 1   
    56    30    54 1   
    57    31    32 1   
    58    32    33 1   
    59    32    55 1   
    60    32    56 1   
    61    33    57 1   
    62    33    58 1   
@<TRIPOS>SUBSTRUCTURE
     1 WBT         1 TEMP              0 ****  ****    0 ROOT
