@<TRIPOS>MOLECULE
WBU
   14    14     1     0     0
SMALL
abcg2


@<TRIPOS>ATOM
      1 N1          -1.2440     0.0090    -1.1130 ns         1 WBU      -0.508600
      2 C2           0.0110    -0.0470    -1.6210 c          1 WBU       0.614000
      3 O2           0.2670    -0.1000    -2.8100 o          1 WBU      -0.559000
      4 N3           0.9910    -0.0400    -0.6520 ns         1 WBU      -0.465500
      5 C4           0.8280     0.0280     0.7150 c          1 WBU       0.581200
      6 O4           1.7870     0.0250     1.4660 o          1 WBU      -0.526000
      7 C5          -0.5570     0.0900     1.1670 cc         1 WBU      -0.049200
      8 C6          -1.5260     0.0620     0.2320 cd         1 WBU      -0.106400
      9 N01         -0.7640     0.2370     2.5320 nv         1 WBU      -0.884000
     10 H1          -2.0090     0.0010    -1.7690 hn         1 WBU       0.462000
     11 H3           1.9440    -0.0880    -0.9900 hn         1 WBU       0.346500
     12 H6          -2.5770     0.0920     0.4800 h4         1 WBU       0.206000
     13 H011        -0.0900    -0.2650     3.0910 hn         1 WBU       0.443000
     14 H012        -1.7000    -0.0000     2.8270 hn         1 WBU       0.443000
@<TRIPOS>BOND
     1     1     2 1   
     2     1     8 1   
     3     1    10 1   
     4     2     3 2   
     5     2     4 1   
     6     4     5 1   
     7     4    11 1   
     8     5     6 2   
     9     5     7 1   
    10     7     8 2   
    11     7     9 1   
    12     8    12 1   
    13     9    13 1   
    14     9    14 1   
@<TRIPOS>SUBSTRUCTURE
     1 WBU         1 TEMP              0 ****  ****    0 ROOT
