@<TRIPOS>MOLECULE
WBU
   14    14     1     0     0
SMALL
No Charge or Current Charge


@<TRIPOS>ATOM
      1 N1          -1.2450     0.0190    -1.1170 ns         1 WBU      -0.508600
      2 C2           0.0310    -0.0230    -1.6100 c          1 WBU       0.614000
      3 O2           0.2710    -0.0380    -2.8010 o          1 WBU      -0.559000
      4 N3           1.0030    -0.0460    -0.6630 ns         1 WBU      -0.465500
      5 C4           0.8540    -0.0320     0.6950 c          1 WBU       0.581200
      6 O4           1.8280    -0.0570     1.4360 o          1 WBU      -0.526000
      7 C5          -0.5850     0.0140     1.1570 cc         1 WBU      -0.049200
      8 C6          -1.6000     0.0380     0.2270 cd         1 WBU      -0.106400
      9 N01         -0.7930     0.0290     2.5290 nv         1 WBU      -0.884000
     10 H1          -1.9560     0.0350    -1.8450 hn         1 WBU       0.462000
     11 H3           1.9500    -0.0770    -1.0040 hn         1 WBU       0.346500
     12 H6          -2.6660     0.0720     0.4490 h4         1 WBU       0.206000
     13 H011        -0.0010     0.0100     3.1740 hn         1 WBU       0.443000
     14 H012        -1.7310     0.0600     2.9290 hn         1 WBU       0.443000
@<TRIPOS>BOND
     1     1     2 1   
     2     1     8 1   
     3     1    10 1   
     4     2     3 2   
     5     2     4 1   
     6     4     5 1   
     7     4    11 1   
     8     5     6 2   
     9     5     7 1   
    10     7     8 2   
    11     7     9 1   
    12     8    12 1   
    13     9    13 1   
    14     9    14 1   
@<TRIPOS>SUBSTRUCTURE
     1 WBU         1 TEMP              0 ****  ****    0 ROOT
