@<TRIPOS>MOLECULE
WBV
   65    68     1     0     0
SMALL
abcg2


@<TRIPOS>ATOM
      1 CAA         35.6290   -36.1020   -27.6700 c3         1 WBV      -0.138400
      2 CAB         37.9770   -29.6600   -28.0780 c3         1 WBV      -0.011900
      3 CAC         40.7140   -31.0290   -27.1280 c3         1 WBV      -0.026900
      4 CAD         43.5830   -35.1150   -30.3610 c3         1 WBV       0.079900
      5 CAE         33.6930   -33.4100   -25.3900 c3         1 WBV      -0.100767
      6 CAF         31.7120   -32.7250   -26.7560 c3         1 WBV      -0.100767
      7 CAG         31.7800   -34.9780   -25.6920 c3         1 WBV      -0.100767
      8 CAK         34.1240   -29.0140   -27.6570 ca         1 WBV      -0.120000
      9 CAL         33.9160   -29.6670   -29.9710 ca         1 WBV      -0.120000
     10 CAM         34.8350   -30.1770   -27.4050 ca         1 WBV      -0.083000
     11 CAN         34.6200   -30.8310   -29.7000 ca         1 WBV      -0.083000
     12 CAO         40.4010   -35.4090   -28.9760 cc         1 WBV       0.281900
     13 CAP         42.2180   -34.3210   -28.4220 cd         1 WBV      -0.175000
     14 CAQ         40.2450   -33.9780   -26.7960 c3         1 WBV       0.174900
     15 CAU         33.7420   -34.4940   -29.8620 c          1 WBV       0.731000
     16 CAV         33.6750   -28.7670   -28.9440 ca         1 WBV       0.112000
     17 CAW         36.1440   -34.6910   -27.7260 ca         1 WBV       0.411300
     18 CAX         40.9250   -34.5410   -28.0010 cc         1 WBV      -0.223300
     19 CAY         38.1990   -31.0960   -27.7320 cc         1 WBV      -0.116400
     20 CAZ         39.3850   -31.6620   -27.3340 cd         1 WBV      -0.073300
     21 CBA         35.0930   -31.0980   -28.4170 cp         1 WBV      -0.011000
     22 CBB         35.8880   -32.3120   -28.1090 cp         1 WBV       0.020000
     23 CBC         35.3330   -33.5940   -28.1010 ca         1 WBV      -0.081300
     24 CBD         37.9220   -33.3380   -27.4110 ca         1 WBV       0.375500
     25 CBE         37.2410   -32.1660   -27.7770 ca         1 WBV      -0.127800
     26 CBF         33.8800   -33.8130   -28.4630 c3         1 WBV       0.052600
     27 NAR         41.2950   -35.6910   -29.9050 nd         1 WBV      -0.532800
     28 NAS         37.4200   -34.5570   -27.3790 nb         1 WBV      -0.726000
     29 NBG         42.3910   -35.0250   -29.5550 na         1 WBV       0.122800
     30 NBH         39.2130   -33.0150   -27.1190 na         1 WBV      -0.200400
     31 OAI         34.5210   -34.0570   -30.7330 o          1 WBV      -0.706500
     32 OAT         33.1690   -34.5480   -27.5010 os         1 WBV      -0.424000
     33 CLA         32.7940   -27.3100   -29.2730 cl         1 WBV      -0.242000
     34 H1          36.4660   -36.7940   -27.7490 hc         1 WBV       0.054367
     35 H2          35.1280   -36.2990   -26.7210 hc         1 WBV       0.054367
     36 H3          34.9160   -36.3350   -28.4560 hc         1 WBV       0.054367
     37 H4          37.3840   -29.1360   -27.3260 hc         1 WBV       0.031700
     38 H5          38.9210   -29.1240   -28.1750 hc         1 WBV       0.031700
     39 H6          37.4470   -29.5540   -29.0250 hc         1 WBV       0.031700
     40 H7          41.0550   -31.1300   -26.0950 hc         1 WBV       0.036367
     41 H8          41.4790   -31.4750   -27.7660 hc         1 WBV       0.036367
     42 H9          40.6750   -29.9660   -27.3550 hc         1 WBV       0.036367
     43 H10         43.3870   -34.7630   -31.3720 h1         1 WBV       0.048700
     44 H11         44.3570   -34.4950   -29.9160 h1         1 WBV       0.048700
     45 H12         43.9370   -36.1430   -30.4040 h1         1 WBV       0.048700
     46 H13         33.2290   -33.0670   -24.4640 hc         1 WBV       0.032033
     47 H14         34.3880   -34.2140   -25.1410 hc         1 WBV       0.032033
     48 H15         34.2700   -32.5780   -25.7930 hc         1 WBV       0.032033
     49 H16         31.1720   -32.3660   -25.8790 hc         1 WBV       0.032033
     50 H17         32.2700   -31.8750   -27.1540 hc         1 WBV       0.032033
     51 H18         30.9730   -33.0280   -27.5000 hc         1 WBV       0.032033
     52 H19         31.3000   -34.5930   -24.7920 hc         1 WBV       0.032033
     53 H20         30.9980   -35.3430   -26.3600 hc         1 WBV       0.032033
     54 H21         32.4020   -35.8280   -25.4010 hc         1 WBV       0.032033
     55 H22         33.9270   -28.3100   -26.8600 ha         1 WBV       0.119000
     56 H23         33.5580   -29.4680   -30.9720 ha         1 WBV       0.119000
     57 H24         35.1930   -30.3660   -26.4010 ha         1 WBV       0.144500
     58 H25         34.7950   -31.5470   -30.4910 ha         1 WBV       0.144500
     59 H26         39.4080   -35.8320   -29.0250 h4         1 WBV       0.066100
     60 H27         43.0110   -33.7260   -27.9950 h4         1 WBV       0.141000
     61 H28         39.7760   -34.7730   -26.2150 h1         1 WBV       0.058200
     62 H29         40.9720   -33.5030   -26.1390 h1         1 WBV       0.058200
     63 H30         33.4160   -32.8290   -28.6020 h1         1 WBV       0.031700
     64 CBI         32.6170   -33.8930   -26.3640 c3         1 WBV       0.186000
     65 OAH         32.8640   -35.3590   -29.9970 o          1 WBV      -0.706500
@<TRIPOS>BOND
     1     1    17 1   
     2     1    34 1   
     3     1    35 1   
     4     1    36 1   
     5     2    19 1   
     6     2    37 1   
     7     2    38 1   
     8     2    39 1   
     9     3    20 1   
    10     3    40 1   
    11     3    41 1   
    12     3    42 1   
    13     4    29 1   
    14     4    43 1   
    15     4    44 1   
    16     4    45 1   
    17     5    46 1   
    18     5    47 1   
    19     5    48 1   
    20     5    64 1   
    21     6    49 1   
    22     6    50 1   
    23     6    51 1   
    24     6    64 1   
    25     7    52 1   
    26     7    53 1   
    27     7    54 1   
    28     7    64 1   
    29     8    10 ar  
    30     8    16 ar  
    31     8    55 1   
    32     9    11 ar  
    33     9    16 ar  
    34     9    56 1   
    35    10    21 ar  
    36    10    57 1   
    37    11    21 ar  
    38    11    58 1   
    39    12    18 1   
    40    12    27 2   
    41    12    59 1   
    42    13    18 2   
    43    13    29 1   
    44    13    60 1   
    45    14    18 1   
    46    14    30 1   
    47    14    61 1   
    48    14    62 1   
    49    15    26 1   
    50    15    31 1   
    51    15    65 1   
    52    16    33 1   
    53    17    23 ar  
    54    17    28 ar  
    55    19    20 2   
    56    19    25 1   
    57    20    30 1   
    58    21    22 1   
    59    22    23 ar  
    60    22    25 ar  
    61    23    26 1   
    62    24    25 ar  
    63    24    28 ar  
    64    24    30 1   
    65    26    32 1   
    66    26    63 1   
    67    27    29 1   
    68    32    64 1   
@<TRIPOS>SUBSTRUCTURE
     1 WBV         1 TEMP              0 ****  ****    0 ROOT
