@<TRIPOS>MOLECULE
WBV
   65    68     1     0     0
SMALL
No Charge or Current Charge


@<TRIPOS>ATOM
      1 CAA         35.4040   -36.2190   -27.7490 c3         1 WBV      -0.138400
      2 CAB         37.9230   -29.8280   -28.1460 c3         1 WBV      -0.011900
      3 CAC         40.6990   -31.1430   -27.1990 c3         1 WBV      -0.026900
      4 CAD         43.9970   -34.7650   -30.1820 c3         1 WBV       0.079900
      5 CAE         33.8260   -33.4020   -25.3470 c3         1 WBV      -0.100767
      6 CAF         31.7090   -32.5310   -26.5250 c3         1 WBV      -0.100767
      7 CAG         31.7180   -34.8010   -25.3900 c3         1 WBV      -0.100767
      8 CAK         34.0310   -29.0260   -27.7830 ca         1 WBV      -0.120000
      9 CAL         34.0030   -29.6660   -30.1300 ca         1 WBV      -0.120000
     10 CAM         34.7360   -30.2010   -27.4720 ca         1 WBV      -0.083000
     11 CAN         34.7080   -30.8410   -29.8170 ca         1 WBV      -0.083000
     12 CAO         40.6590   -35.2490   -29.1840 cc         1 WBV       0.281900
     13 CAP         42.4040   -34.2800   -28.2370 cd         1 WBV      -0.175000
     14 CAQ         40.1970   -34.2390   -26.8670 c3         1 WBV       0.174900
     15 CAU         33.4770   -34.4870   -29.8610 c          1 WBV       0.731000
     16 CAV         33.6640   -28.7610   -29.1120 ca         1 WBV       0.112000
     17 CAW         35.9600   -34.8000   -27.7940 ca         1 WBV       0.411300
     18 CAX         41.0870   -34.5650   -28.0350 cc         1 WBV      -0.223300
     19 CAY         38.1600   -31.2740   -27.7800 cc         1 WBV      -0.116400
     20 CAZ         39.3670   -31.8330   -27.3810 cd         1 WBV      -0.073300
     21 CBA         35.0830   -31.1290   -28.4830 cp         1 WBV      -0.011000
     22 CBB         35.8220   -32.3820   -28.1500 cp         1 WBV       0.020000
     23 CBC         35.1770   -33.6560   -28.1250 ca         1 WBV      -0.081300
     24 CBD         37.8680   -33.5220   -27.4910 ca         1 WBV       0.375500
     25 CBE         37.2010   -32.3620   -27.8250 ca         1 WBV      -0.127800
     26 CBF         33.6760   -33.7900   -28.4640 c3         1 WBV       0.052600
     27 NAR         41.6010   -35.4200   -30.0900 nd         1 WBV      -0.532800
     28 NAS         37.2730   -34.7290   -27.4770 nb         1 WBV      -0.726000
     29 NBG         42.6970   -34.8110   -29.4970 na         1 WBV       0.122800
     30 NBH         39.1890   -33.2190   -27.2010 na         1 WBV      -0.200400
     31 OAI         34.1550   -34.0950   -30.8020 o          1 WBV      -0.706500
     32 OAT         32.9470   -34.4730   -27.3900 os         1 WBV      -0.424000
     33 ClA         32.7820   -27.2910   -29.5020 cl         1 WBV      -0.242000
     34 H1          36.1940   -36.9620   -27.5890 hc         1 WBV       0.054367
     35 H2          34.6850   -36.3360   -26.9300 hc         1 WBV       0.054367
     36 H3          34.9050   -36.4850   -28.6850 hc         1 WBV       0.054367
     37 H4          37.3900   -29.3040   -27.3450 hc         1 WBV       0.031700
     38 H5          38.8660   -29.2980   -28.3190 hc         1 WBV       0.031700
     39 H6          37.3370   -29.7430   -29.0680 hc         1 WBV       0.031700
     40 H7          41.3240   -31.6510   -26.4560 hc         1 WBV       0.036367
     41 H8          41.2560   -31.1170   -28.1440 hc         1 WBV       0.036367
     42 H9          40.5700   -30.1100   -26.8560 hc         1 WBV       0.036367
     43 H10         43.8930   -34.2250   -31.1310 h1         1 WBV       0.048700
     44 H11         44.7310   -34.2490   -29.5510 h1         1 WBV       0.048700
     45 H12         44.3440   -35.7860   -30.3790 h1         1 WBV       0.048700
     46 H13         33.5400   -33.0820   -24.3380 hc         1 WBV       0.032033
     47 H14         34.5000   -34.2610   -25.2480 hc         1 WBV       0.032033
     48 H15         34.3770   -32.5740   -25.8000 hc         1 WBV       0.032033
     49 H16         31.2240   -32.1330   -25.6250 hc         1 WBV       0.032033
     50 H17         32.3180   -31.7230   -26.9470 hc         1 WBV       0.032033
     51 H18         30.9240   -32.7890   -27.2460 hc         1 WBV       0.032033
     52 H19         31.3680   -34.3770   -24.4410 hc         1 WBV       0.032033
     53 H20         30.8380   -35.1020   -25.9710 hc         1 WBV       0.032033
     54 H21         32.3040   -35.7010   -25.1640 hc         1 WBV       0.032033
     55 H22         33.7710   -28.3220   -26.9970 ha         1 WBV       0.119000
     56 H23         33.7210   -29.4570   -31.1590 ha         1 WBV       0.119000
     57 H24         35.0240   -30.3960   -26.4410 ha         1 WBV       0.144500
     58 H25         34.9730   -31.5350   -30.6110 ha         1 WBV       0.144500
     59 H26         39.6650   -35.6300   -29.3840 h4         1 WBV       0.066100
     60 H27         43.1310   -33.7630   -27.6210 h4         1 WBV       0.141000
     61 H28         39.6970   -35.1550   -26.5270 h1         1 WBV       0.058200
     62 H29         40.8080   -33.8740   -26.0320 h1         1 WBV       0.058200
     63 H30         33.2450   -32.7970   -28.6130 h1         1 WBV       0.031700
     64 CBI         32.5690   -33.7730   -26.1720 c3         1 WBV       0.186000
     65 OAH         32.6730   -35.4060   -29.9690 o          1 WBV      -0.706500
@<TRIPOS>BOND
     1     1    17 1   
     2     1    34 1   
     3     1    35 1   
     4     1    36 1   
     5     2    19 1   
     6     2    37 1   
     7     2    38 1   
     8     2    39 1   
     9     3    20 1   
    10     3    40 1   
    11     3    41 1   
    12     3    42 1   
    13     4    29 1   
    14     4    43 1   
    15     4    44 1   
    16     4    45 1   
    17     5    46 1   
    18     5    47 1   
    19     5    48 1   
    20     5    64 1   
    21     6    49 1   
    22     6    50 1   
    23     6    51 1   
    24     6    64 1   
    25     7    52 1   
    26     7    53 1   
    27     7    54 1   
    28     7    64 1   
    29     8    10 ar  
    30     8    16 ar  
    31     8    55 1   
    32     9    11 ar  
    33     9    16 ar  
    34     9    56 1   
    35    10    21 ar  
    36    10    57 1   
    37    11    21 ar  
    38    11    58 1   
    39    12    18 1   
    40    12    27 2   
    41    12    59 1   
    42    13    18 2   
    43    13    29 1   
    44    13    60 1   
    45    14    18 1   
    46    14    30 1   
    47    14    61 1   
    48    14    62 1   
    49    15    26 1   
    50    15    31 1   
    51    15    65 1   
    52    16    33 1   
    53    17    23 ar  
    54    17    28 ar  
    55    19    20 2   
    56    19    25 1   
    57    20    30 1   
    58    21    22 1   
    59    22    23 ar  
    60    22    25 ar  
    61    23    26 1   
    62    24    25 ar  
    63    24    28 ar  
    64    24    30 1   
    65    26    32 1   
    66    26    63 1   
    67    27    29 1   
    68    32    64 1   
@<TRIPOS>SUBSTRUCTURE
     1 WBV         1 TEMP              0 ****  ****    0 ROOT
