@<TRIPOS>MOLECULE
WBX
   31    32     1     0     0
SMALL
No Charge or Current Charge


@<TRIPOS>ATOM
      1 N1          -2.5480    14.5970   -34.8220 nh         1 WBX      -0.757300
      2 C7          -1.6480    13.6700   -35.3090 cc         1 WBX       0.714300
      3 C8           0.3320    12.8150   -35.8370 cd         1 WBX       0.318900
      4 N2          -0.3460    13.8950   -35.2920 nd         1 WBX      -0.735000
      5 C9          -0.4680    11.7810   -36.2630 cc         1 WBX      -0.278000
      6 O1          -7.2790    16.7370   -32.7030 o          1 WBX      -0.464000
      7 C1          -6.8750    17.6560   -33.4090 c          1 WBX       0.581100
      8 C5          -3.9990    14.2700   -34.6380 c6         1 WBX       0.213800
      9 C6          -4.9200    15.5270   -34.7380 c6         1 WBX       0.156800
     10 C4          -2.0970    15.7790   -34.0160 c6         1 WBX       0.213800
     11 C3          -3.0670    16.9970   -34.1340 c6         1 WBX       0.156800
     12 O           -7.6760    18.6700   -33.8790 os         1 WBX      -0.458100
     13 C           -9.0730    18.6500   -33.5260 c3         1 WBX       0.153900
     14 N           -4.4860    16.6390   -33.8370 n3         1 WBX      -0.705600
     15 S           -2.1480    12.1350   -35.9890 ss         1 WBX      -0.132400
     16 H1           1.4130    12.8380   -35.8980 h4         1 WBX       0.037100
     17 H2          -0.1720    10.8440   -36.7160 h4         1 WBX       0.159000
     18 H3          -4.1490    13.8040   -33.6530 h1         1 WBX       0.061950
     19 H4          -4.3480    13.5480   -35.3900 h1         1 WBX       0.061950
     20 H5          -4.9220    15.8710   -35.7830 h1         1 WBX       0.046950
     21 H6          -5.9480    15.2170   -34.5040 h1         1 WBX       0.046950
     22 H7          -2.0220    15.4930   -32.9570 h1         1 WBX       0.061950
     23 H8          -1.0980    16.1190   -34.3260 h1         1 WBX       0.061950
     24 H9          -2.7200    17.7830   -33.4470 h1         1 WBX       0.046950
     25 H10         -2.9870    17.4050   -35.1520 h1         1 WBX       0.046950
     26 H11         -4.9910    18.6370   -33.2620 h1         1 WBX       0.064200
     27 H12         -5.4480    18.2220   -34.9060 h1         1 WBX       0.064200
     28 H13         -9.5900    19.5120   -33.9660 h1         1 WBX       0.050700
     29 H14         -9.5580    17.7380   -33.8960 h1         1 WBX       0.050700
     30 H15         -9.2030    18.6960   -32.4370 h1         1 WBX       0.050700
     31 C2          -5.4020    17.8300   -33.8810 c3         1 WBX       0.108800
@<TRIPOS>BOND
     1     1     2 1   
     2     1     8 1   
     3     1    10 1   
     4     2     4 2   
     5     2    15 1   
     6     3     4 1   
     7     3     5 2   
     8     3    16 1   
     9     5    15 1   
    10     5    17 1   
    11     6     7 2   
    12     7    12 1   
    13     7    31 1   
    14     8     9 1   
    15     8    18 1   
    16     8    19 1   
    17     9    14 1   
    18     9    20 1   
    19     9    21 1   
    20    10    11 1   
    21    10    22 1   
    22    10    23 1   
    23    11    14 1   
    24    11    24 1   
    25    11    25 1   
    26    12    13 1   
    27    13    28 1   
    28    13    29 1   
    29    13    30 1   
    30    14    31 1   
    31    26    31 1   
    32    27    31 1   
@<TRIPOS>SUBSTRUCTURE
     1 WBX         1 TEMP              0 ****  ****    0 ROOT
