@<TRIPOS>MOLECULE
WBX
   31    32     1     0     0
SMALL
abcg2


@<TRIPOS>ATOM
      1 N1          -2.6260    14.7470   -34.9500 nh         1 WBX      -0.757300
      2 C7          -1.7200    13.7760   -35.2420 cc         1 WBX       0.714300
      3 C8           0.2310    12.7560   -35.5020 cd         1 WBX       0.318900
      4 N2          -0.4260    13.8810   -35.0570 nd         1 WBX      -0.735000
      5 C9          -0.5390    11.7680   -36.0170 cc         1 WBX      -0.278000
      6 O1          -7.0400    16.6180   -32.7500 o          1 WBX      -0.464000
      7 C1          -6.7480    17.5520   -33.4600 c          1 WBX       0.581100
      8 C5          -4.0440    14.4120   -34.8810 c6         1 WBX       0.213800
      9 C6          -4.8960    15.6590   -35.0260 c6         1 WBX       0.156800
     10 C4          -2.2100    15.8330   -34.0620 c6         1 WBX       0.213800
     11 C3          -3.1150    17.0390   -34.2370 c6         1 WBX       0.156800
     12 O           -7.6000    18.5300   -33.7880 os         1 WBX      -0.458100
     13 C           -8.9260    18.4500   -33.2250 c3         1 WBX       0.153900
     14 N           -4.5130    16.6650   -34.0400 n3         1 WBX      -0.705600
     15 S           -2.2100    12.2400   -35.9560 ss         1 WBX      -0.132400
     16 H1           1.3080    12.7110   -35.4170 h4         1 WBX       0.037100
     17 H2          -0.2450    10.8110   -36.4150 h4         1 WBX       0.159000
     18 H3          -4.2690    13.9140   -33.9290 h1         1 WBX       0.061950
     19 H4          -4.2920    13.7270   -35.6920 h1         1 WBX       0.061950
     20 H5          -4.7910    16.0580   -36.0490 h1         1 WBX       0.046950
     21 H6          -5.9400    15.3840   -34.8770 h1         1 WBX       0.046950
     22 H7          -2.2420    15.4910   -33.0200 h1         1 WBX       0.061950
     23 H8          -1.1850    16.1020   -34.3010 h1         1 WBX       0.061950
     24 H9          -2.8410    17.7920   -33.4960 h1         1 WBX       0.046950
     25 H10         -2.9560    17.4740   -35.2380 h1         1 WBX       0.046950
     26 H11         -4.9400    18.6240   -33.4860 h1         1 WBX       0.064200
     27 H12         -5.5370    18.2170   -35.0880 h1         1 WBX       0.064200
     28 H13         -9.4540    19.3200   -33.6030 h1         1 WBX       0.050700
     29 H14         -9.4160    17.5330   -33.5500 h1         1 WBX       0.050700
     30 H15         -8.8750    18.4760   -32.1370 h1         1 WBX       0.050700
     31 C2          -5.3860    17.8170   -34.0740 c3         1 WBX       0.108800
@<TRIPOS>BOND
     1     1     2 1   
     2     1     8 1   
     3     1    10 1   
     4     2     4 2   
     5     2    15 1   
     6     3     4 1   
     7     3     5 2   
     8     3    16 1   
     9     5    15 1   
    10     5    17 1   
    11     6     7 2   
    12     7    12 1   
    13     7    31 1   
    14     8     9 1   
    15     8    18 1   
    16     8    19 1   
    17     9    14 1   
    18     9    20 1   
    19     9    21 1   
    20    10    11 1   
    21    10    22 1   
    22    10    23 1   
    23    11    14 1   
    24    11    24 1   
    25    11    25 1   
    26    12    13 1   
    27    13    28 1   
    28    13    29 1   
    29    13    30 1   
    30    14    31 1   
    31    26    31 1   
    32    27    31 1   
@<TRIPOS>SUBSTRUCTURE
     1 WBX         1 TEMP              0 ****  ****    0 ROOT
