@<TRIPOS>MOLECULE
WBY
   18    19     1     0     0
SMALL
No Charge or Current Charge


@<TRIPOS>ATOM
      1 C10         13.3320    -1.3040   -20.7030 c3         1 WBY      -0.143400
      2 C02         13.3250    -3.2270   -25.6850 c          1 WBY       0.630600
      3 C04         13.8510    -0.9830   -26.6510 c          1 WBY       0.648000
      4 C06         13.6180    -1.2350   -24.2880 cc         1 WBY       0.485900
      5 C07         13.3610    -2.5530   -24.3870 cd         1 WBY      -0.416600
      6 C09         13.3810    -1.6150   -22.1690 cd         1 WBY       0.474700
      7 N03         13.5800    -2.3640   -26.7750 n          1 WBY      -0.256900
      8 N05         13.8530    -0.4950   -25.3830 ns         1 WBY      -0.568900
      9 N11         13.6400    -0.6630   -23.0620 nc         1 WBY      -0.677000
     10 O12         14.0770    -0.2550   -27.6020 o          1 WBY      -0.499000
     11 O13         13.5520    -2.9380   -28.1220 oh         1 WBY      -0.408100
     12 S08         13.1010    -3.2470   -22.8000 ss         1 WBY       0.099600
     13 H1          12.5590    -0.5560   -20.4900 hc         1 WBY       0.068700
     14 H2          13.1040    -2.2010   -20.1160 hc         1 WBY       0.068700
     15 H3          14.2930    -0.9090   -20.3570 hc         1 WBY       0.068700
     16 H4          14.0450     0.4900   -25.2760 hn         1 WBY       0.482000
     17 H5          14.4740    -3.2360   -28.2990 ho         1 WBY       0.476000
     18 O01         13.0990    -4.4230   -25.8110 o          1 WBY      -0.532000
@<TRIPOS>BOND
     1     1     6 1   
     2     1    13 1   
     3     1    14 1   
     4     1    15 1   
     5     2     5 1   
     6     2     7 1   
     7     2    18 2   
     8     3     7 1   
     9     3     8 1   
    10     3    10 2   
    11     4     5 2   
    12     4     8 1   
    13     4     9 1   
    14     5    12 1   
    15     6     9 2   
    16     6    12 1   
    17     7    11 1   
    18     8    16 1   
    19    11    17 1   
@<TRIPOS>SUBSTRUCTURE
     1 WBY         1 TEMP              0 ****  ****    0 ROOT
