@<TRIPOS>MOLECULE
WBY
   18    19     1     0     0
SMALL
abcg2


@<TRIPOS>ATOM
      1 C10         13.3210    -1.3890   -20.7320 c3         1 WBY      -0.143400
      2 C02         13.6850    -3.1770   -25.6830 c          1 WBY       0.630600
      3 C04         13.7030    -0.8860   -26.6970 c          1 WBY       0.648000
      4 C06         13.5490    -1.1580   -24.3210 cc         1 WBY       0.485900
      5 C07         13.5850    -2.5220   -24.4210 cd         1 WBY      -0.416600
      6 C09         13.4230    -1.6070   -22.1970 cd         1 WBY       0.474700
      7 N03         13.7290    -2.2700   -26.7340 n          1 WBY      -0.256900
      8 N05         13.6070    -0.3740   -25.4290 ns         1 WBY      -0.568900
      9 N11         13.4570    -0.6470   -23.0750 nc         1 WBY      -0.677000
     10 O12         13.7590    -0.2060   -27.6930 o          1 WBY      -0.499000
     11 O13         13.8090    -2.7860   -27.9910 oh         1 WBY      -0.408100
     12 S08         13.5000    -3.2080   -22.8490 ss         1 WBY       0.099600
     13 H1          13.3260    -0.3230   -20.5190 hc         1 WBY       0.068700
     14 H2          12.4020    -1.8220   -20.3380 hc         1 WBY       0.068700
     15 H3          14.1550    -1.8570   -20.2080 hc         1 WBY       0.068700
     16 H4          13.5820     0.6330   -25.3330 hn         1 WBY       0.482000
     17 H5          13.9160    -3.7430   -27.8460 ho         1 WBY       0.476000
     18 O01         13.7370    -4.3720   -25.9100 o          1 WBY      -0.532000
@<TRIPOS>BOND
     1     1     6 1   
     2     1    13 1   
     3     1    14 1   
     4     1    15 1   
     5     2     5 1   
     6     2     7 1   
     7     2    18 2   
     8     3     7 1   
     9     3     8 1   
    10     3    10 2   
    11     4     5 2   
    12     4     8 1   
    13     4     9 1   
    14     5    12 1   
    15     6     9 2   
    16     6    12 1   
    17     7    11 1   
    18     8    16 1   
    19    11    17 1   
@<TRIPOS>SUBSTRUCTURE
     1 WBY         1 TEMP              0 ****  ****    0 ROOT
