@<TRIPOS>MOLECULE
WC1
   53    55     1     0     0
SMALL
abcg2


@<TRIPOS>ATOM
      1 OAE          0.8190    -2.4610     1.2480 o          1 WC1      -0.966167
      2 PAD          0.0820    -2.4830    -0.1130 p5         1 WC1       1.354000
      3 OAF          0.9480    -1.9230    -1.2660 o          1 WC1      -0.966167
      4 OAG         -0.4460    -3.8860    -0.4450 o          1 WC1      -0.966167
      5 CAC         -1.3770    -1.2980     0.0390 c3         1 WC1      -0.687700
      6 PAH         -3.0710    -2.0590     0.0940 p5         1 WC1       1.354000
      7 OAI         -4.0570    -0.8670     0.2280 o          1 WC1      -0.966167
      8 OAK         -3.2960    -2.8040    -1.2320 o          1 WC1      -0.966167
      9 OAJ         -3.1180    -2.9580     1.3440 o          1 WC1      -0.966167
     10 CAB         -1.2200    -0.3090     1.2180 c3         1 WC1       0.030800
     11 CAA         -0.6950     1.0400     0.8420 cc         1 WC1       0.040600
     12 CAO         -1.4180     2.1870     0.6500 cd         1 WC1      -0.173300
     13 CAT         -2.8930     2.4010     0.7290 c3         1 WC1      -0.012500
     14 CAU         -3.2430     3.3860     1.8490 c3         1 WC1      -0.064100
     15 CAV         -3.4810     2.8220    -0.6370 c3         1 WC1      -0.023700
     16 CAX         -3.0500     1.8490    -1.7300 c3         1 WC1      -0.097100
     17 CAW         -5.0060     2.8760    -0.5820 c3         1 WC1      -0.097100
     18 NAN         -0.5640     3.2170     0.3010 na         1 WC1      -0.247700
     19 CAM          0.7120     2.7480     0.2260 ca         1 WC1      -0.062200
     20 CAS          1.9070     3.3800    -0.1190 ca         1 WC1      -0.216000
     21 CAR          3.0540     2.6080    -0.1520 ca         1 WC1      -0.096000
     22 CAL          0.6700     1.3780     0.5620 ca         1 WC1      -0.099800
     23 CAP          1.8410     0.6230     0.5230 ca         1 WC1       0.079000
     24 CAQ          3.0360     1.2300     0.1570 cp         1 WC1      -0.168000
     25 CAY          4.2590     0.4130     0.0310 cp         1 WC1       0.031000
     26 CAZ          5.5250     0.9340     0.3080 ca         1 WC1      -0.102500
     27 CBA          6.6660     0.1540     0.1740 ca         1 WC1      -0.140500
     28 CBB          6.5640    -1.1680    -0.2370 ca         1 WC1      -0.175000
     29 CBC          5.3100    -1.7000    -0.5140 ca         1 WC1      -0.140500
     30 CBD          4.1680    -0.9210    -0.3860 ca         1 WC1      -0.102500
     31 H3          -1.3680    -0.7030    -0.8820 hc         1 WC1       0.014700
     32 H6          -2.1850    -0.1600     1.7070 hc         1 WC1       0.041700
     33 H7          -0.5550    -0.7540     1.9600 hc         1 WC1       0.041700
     34 H8          -3.3280     1.4230     0.9530 hc         1 WC1       0.178700
     35 H9          -2.9100     4.4010     1.6150 hc         1 WC1      -0.003300
     36 H10         -4.3170     3.4290     2.0260 hc         1 WC1      -0.003300
     37 H11         -2.7720     3.0890     2.7870 hc         1 WC1      -0.003300
     38 H12         -3.1130     3.8270    -0.8840 hc         1 WC1      -0.038300
     39 H13         -3.3420     0.8360    -1.4430 hc         1 WC1       0.037700
     40 H14         -3.5170     2.1040    -2.6840 hc         1 WC1       0.037700
     41 H15         -1.9690     1.8510    -1.8750 hc         1 WC1       0.037700
     42 H16         -5.4070     1.8990    -0.3030 hc         1 WC1       0.037700
     43 H17         -5.3780     3.6120     0.1310 hc         1 WC1       0.037700
     44 H18         -5.4180     3.1360    -1.5590 hc         1 WC1       0.037700
     45 H19         -0.8500     4.1560     0.0790 hn         1 WC1       0.293000
     46 H20          1.9380     4.4310    -0.3780 ha         1 WC1       0.052000
     47 H21          3.9830     3.0740    -0.4570 ha         1 WC1       0.051000
     48 H22          1.7940    -0.4300     0.7740 ha         1 WC1       0.228000
     49 H23          5.6250     1.9580     0.6480 ha         1 WC1       0.160500
     50 H24          7.6350     0.5810     0.3980 ha         1 WC1       0.079000
     51 H25          7.4530    -1.7770    -0.3440 ha         1 WC1       0.057000
     52 H26          5.2210    -2.7270    -0.8440 ha         1 WC1       0.079000
     53 H27          3.1940    -1.3370    -0.6360 ha         1 WC1       0.160500
@<TRIPOS>BOND
     1     1     2 1   
     2     2     3 1   
     3     2     4 1   
     4     2     5 1   
     5     5     6 1   
     6     5    10 1   
     7     5    31 1   
     8     6     7 1   
     9     6     8 1   
    10     6     9 1   
    11    10    11 1   
    12    10    32 1   
    13    10    33 1   
    14    11    12 2   
    15    11    22 1   
    16    12    13 1   
    17    12    18 1   
    18    13    14 1   
    19    13    15 1   
    20    13    34 1   
    21    14    35 1   
    22    14    36 1   
    23    14    37 1   
    24    15    16 1   
    25    15    17 1   
    26    15    38 1   
    27    16    39 1   
    28    16    40 1   
    29    16    41 1   
    30    17    42 1   
    31    17    43 1   
    32    17    44 1   
    33    18    19 1   
    34    18    45 1   
    35    19    20 ar  
    36    19    22 ar  
    37    20    21 ar  
    38    20    46 1   
    39    21    24 ar  
    40    21    47 1   
    41    22    23 ar  
    42    23    24 ar  
    43    23    48 1   
    44    24    25 1   
    45    25    26 ar  
    46    25    30 ar  
    47    26    27 ar  
    48    26    49 1   
    49    27    28 ar  
    50    27    50 1   
    51    28    29 ar  
    52    28    51 1   
    53    29    30 ar  
    54    29    52 1   
    55    30    53 1   
@<TRIPOS>SUBSTRUCTURE
     1 WC1         1 TEMP              0 ****  ****    0 ROOT
