@<TRIPOS>MOLECULE
WC1
   53    55     1     0     0
SMALL
No Charge or Current Charge


@<TRIPOS>ATOM
      1 OAE          0.5440    -2.6020    -0.1240 o          1 WC1      -0.966167
      2 PAD         -0.6590    -2.1750    -0.8960 p5         1 WC1       1.354000
      3 OAF         -0.2110    -1.1690    -1.9030 o          1 WC1      -0.966167
      4 OAG         -1.2420    -3.3300    -1.6370 o          1 WC1      -0.966167
      5 CAC         -1.8270    -1.3200     0.1820 c3         1 WC1      -0.687700
      6 PAH         -2.7710    -2.6090     1.0160 p5         1 WC1       1.354000
      7 OAI         -3.5670    -1.9320     2.0820 o          1 WC1      -0.966167
      8 OAK         -3.7600    -3.2240     0.0850 o          1 WC1      -0.966167
      9 OAJ         -1.9130    -3.6440     1.6610 o          1 WC1      -0.966167
     10 CAB         -1.1580    -0.3230     1.1790 c3         1 WC1       0.030800
     11 CAA         -0.6510     0.9830     0.5920 cc         1 WC1       0.040600
     12 CAO         -1.3870     2.1470     0.3470 cd         1 WC1      -0.173300
     13 CAT         -2.8810     2.3660     0.5220 c3         1 WC1      -0.012500
     14 CAU         -3.1280     3.2090     1.7980 c3         1 WC1      -0.064100
     15 CAV         -3.5550     2.9650    -0.7590 c3         1 WC1      -0.023700
     16 CAX         -3.2730     2.1120    -2.0210 c3         1 WC1      -0.097100
     17 CAW         -5.0820     3.1740    -0.6000 c3         1 WC1      -0.097100
     18 NAN         -0.5170     3.1830    -0.0740 na         1 WC1      -0.247700
     19 CAM          0.7510     2.6410    -0.0730 ca         1 WC1      -0.062200
     20 CAS          1.9520     3.2810    -0.3940 ca         1 WC1      -0.216000
     21 CAR          3.1470     2.5370    -0.3170 ca         1 WC1      -0.096000
     22 CAL          0.7190     1.3310     0.3090 ca         1 WC1      -0.099800
     23 CAP          1.8890     0.5600     0.3900 ca         1 WC1       0.079000
     24 CAQ          3.1420     1.1650     0.0750 cp         1 WC1      -0.168000
     25 CAY          4.4170     0.3820     0.1550 cp         1 WC1       0.031000
     26 CAZ          5.6250     0.9940     0.5770 ca         1 WC1      -0.102500
     27 CBA          6.8230     0.2620     0.6550 ca         1 WC1      -0.140500
     28 CBB          6.8390    -1.0980     0.3120 ca         1 WC1      -0.175000
     29 CBC          5.6580    -1.7260    -0.1090 ca         1 WC1      -0.140500
     30 CBD          4.4590    -0.9940    -0.1870 ca         1 WC1      -0.102500
     31 H3          -2.5330    -0.7750    -0.4490 hc         1 WC1       0.014700
     32 H6          -1.8750    -0.0530     1.9620 hc         1 WC1       0.041700
     33 H7          -0.3470    -0.8300     1.7150 hc         1 WC1       0.041700
     34 H8          -3.3520     1.3890     0.6950 hc         1 WC1       0.178700
     35 H9          -2.7950     4.2440     1.6550 hc         1 WC1      -0.003300
     36 H10         -4.1900     3.2200     2.0710 hc         1 WC1      -0.003300
     37 H11         -2.5780     2.7870     2.6480 hc         1 WC1      -0.003300
     38 H12         -3.1190     3.9560    -0.9390 hc         1 WC1      -0.038300
     39 H13         -3.6700     1.0970    -1.9030 hc         1 WC1       0.037700
     40 H14         -3.7410     2.5610    -2.9050 hc         1 WC1       0.037700
     41 H15         -2.1980     2.0380    -2.2210 hc         1 WC1       0.037700
     42 H16         -5.5800     2.2340    -0.3300 hc         1 WC1       0.037700
     43 H17         -5.3050     3.9190     0.1720 hc         1 WC1       0.037700
     44 H18         -5.5240     3.5360    -1.5360 hc         1 WC1       0.037700
     45 H19         -0.7740     4.1330    -0.3140 hn         1 WC1       0.293000
     46 H20          1.9660     4.3250    -0.6960 ha         1 WC1       0.052000
     47 H21          4.0820     3.0250    -0.5760 ha         1 WC1       0.051000
     48 H22          1.8320    -0.4790     0.7030 ha         1 WC1       0.228000
     49 H23          5.6290     2.0440     0.8590 ha         1 WC1       0.160500
     50 H24          7.7380     0.7510     0.9850 ha         1 WC1       0.079000
     51 H25          7.7650    -1.6640     0.3720 ha         1 WC1       0.057000
     52 H26          5.6690    -2.7790    -0.3800 ha         1 WC1       0.079000
     53 H27          3.5570    -1.4970    -0.5300 ha         1 WC1       0.160500
@<TRIPOS>BOND
     1     1     2 1   
     2     2     3 1   
     3     2     4 1   
     4     2     5 1   
     5     5     6 1   
     6     5    10 1   
     7     5    31 1   
     8     6     7 1   
     9     6     8 1   
    10     6     9 1   
    11    10    11 1   
    12    10    32 1   
    13    10    33 1   
    14    11    12 2   
    15    11    22 1   
    16    12    13 1   
    17    12    18 1   
    18    13    14 1   
    19    13    15 1   
    20    13    34 1   
    21    14    35 1   
    22    14    36 1   
    23    14    37 1   
    24    15    16 1   
    25    15    17 1   
    26    15    38 1   
    27    16    39 1   
    28    16    40 1   
    29    16    41 1   
    30    17    42 1   
    31    17    43 1   
    32    17    44 1   
    33    18    19 1   
    34    18    45 1   
    35    19    20 ar  
    36    19    22 ar  
    37    20    21 ar  
    38    20    46 1   
    39    21    24 ar  
    40    21    47 1   
    41    22    23 ar  
    42    23    24 ar  
    43    23    48 1   
    44    24    25 1   
    45    25    26 ar  
    46    25    30 ar  
    47    26    27 ar  
    48    26    49 1   
    49    27    28 ar  
    50    27    50 1   
    51    28    29 ar  
    52    28    51 1   
    53    29    30 ar  
    54    29    52 1   
    55    30    53 1   
@<TRIPOS>SUBSTRUCTURE
     1 WC1         1 TEMP              0 ****  ****    0 ROOT
