@<TRIPOS>MOLECULE
WC2
   25    25     1     0     0
SMALL
No Charge or Current Charge


@<TRIPOS>ATOM
      1 N1           0.3310    11.1600   -35.7170 nb         1 WC2      -0.212000
      2 C7          -0.8250    10.5110   -35.4680 ca         1 WC2       0.172900
      3 N2          -1.9480    11.0420   -34.9390 nb         1 WC2      -0.267000
      4 C1          -4.0940    16.4560   -35.1020 c3         1 WC2       0.159600
      5 C5          -0.7560    13.1180   -34.8450 ca         1 WC2      -0.285000
      6 C6           0.3560    12.4690   -35.4000 ca         1 WC2       0.242000
      7 C4          -1.9060    12.3480   -34.6360 ca         1 WC2       0.388900
      8 C3          -3.4140    14.2890   -33.8920 c3         1 WC2       0.232800
      9 C2          -3.6720    14.9820   -35.2460 c3         1 WC2      -0.107400
     10 Cl           1.8470    13.3440   -35.7060 cl         1 WC2      -0.176000
     11 N           -3.0670    12.8680   -34.0860 nu         1 WC2      -0.929100
     12 O           -3.0090    17.1720   -34.4900 os         1 WC2      -0.469000
     13 C           -3.2580    18.5750   -34.2910 c3         1 WC2       0.145900
     14 H1          -0.8550     9.4510   -35.7180 h5         1 WC2       0.051100
     15 H2          -4.3170    16.8680   -36.0950 h1         1 WC2       0.027200
     16 H3          -5.0030    16.5210   -34.4890 h1         1 WC2       0.027200
     17 H4          -0.7140    14.1710   -34.5910 ha         1 WC2       0.153000
     18 H5          -2.6110    14.8090   -33.3500 h1         1 WC2       0.061700
     19 H6          -4.3240    14.3670   -33.2800 h1         1 WC2       0.061700
     20 H7          -4.4660    14.4440   -35.7780 hc         1 WC2       0.059700
     21 H8          -2.7750    14.9280   -35.8740 hc         1 WC2       0.059700
     22 H9          -3.8200    12.1870   -33.9650 hn         1 WC2       0.505000
     23 H10         -2.3900    19.0540   -33.8210 h1         1 WC2       0.032033
     24 H11         -3.4490    19.0770   -35.2490 h1         1 WC2       0.032033
     25 H12         -4.1280    18.7280   -33.6390 h1         1 WC2       0.032033
@<TRIPOS>BOND
     1     1     2 ar  
     2     1     6 ar  
     3     2     3 ar  
     4     2    14 1   
     5     3     7 ar  
     6     4     9 1   
     7     4    12 1   
     8     4    15 1   
     9     4    16 1   
    10     5     6 ar  
    11     5     7 ar  
    12     5    17 1   
    13     6    10 1   
    14     7    11 1   
    15     8     9 1   
    16     8    11 1   
    17     8    18 1   
    18     8    19 1   
    19     9    20 1   
    20     9    21 1   
    21    11    22 1   
    22    12    13 1   
    23    13    23 1   
    24    13    24 1   
    25    13    25 1   
@<TRIPOS>SUBSTRUCTURE
     1 WC2         1 TEMP              0 ****  ****    0 ROOT
