@<TRIPOS>MOLECULE
WC2
   25    25     1     0     0
SMALL
abcg2


@<TRIPOS>ATOM
      1 N1           0.4050    11.2560   -35.5480 nb         1 WC2      -0.212000
      2 C7          -0.7180    10.5660   -35.3180 ca         1 WC2       0.172900
      3 N2          -1.8770    11.0400   -34.9000 nb         1 WC2      -0.267000
      4 C1          -4.1010    16.4580   -35.0450 c3         1 WC2       0.159600
      5 C5          -0.8330    13.2000   -34.8890 ca         1 WC2      -0.285000
      6 C6           0.3020    12.5590   -35.3210 ca         1 WC2       0.242000
      7 C4          -1.9590    12.3740   -34.6740 ca         1 WC2       0.388900
      8 C3          -3.4580    14.2390   -34.0080 c3         1 WC2       0.232800
      9 C2          -3.8170    14.9910   -35.2920 c3         1 WC2      -0.107400
     10 CL           1.7470    13.5080   -35.6110 cl         1 WC2      -0.176000
     11 N           -3.1370    12.8400   -34.2360 nu         1 WC2      -0.929100
     12 O           -2.9100    17.0930   -34.5960 os         1 WC2      -0.469000
     13 C           -3.1050    18.4660   -34.3060 c3         1 WC2       0.145900
     14 H1          -0.6660     9.4970   -35.4960 h5         1 WC2       0.051100
     15 H2          -4.4500    16.9380   -35.9680 h1         1 WC2       0.027200
     16 H3          -4.8900    16.5780   -34.2890 h1         1 WC2       0.027200
     17 H4          -0.8540    14.2660   -34.7340 ha         1 WC2       0.153000
     18 H5          -2.6180    14.7220   -33.5080 h1         1 WC2       0.061700
     19 H6          -4.3000    14.2670   -33.3160 h1         1 WC2       0.061700
     20 H7          -4.7040    14.5340   -35.7390 hc         1 WC2       0.059700
     21 H8          -3.0040    14.8980   -36.0170 hc         1 WC2       0.059700
     22 H9          -3.8810    12.1620   -34.1760 hn         1 WC2       0.505000
     23 H10         -2.1490    18.8700   -33.9750 h1         1 WC2       0.032033
     24 H11         -3.4410    19.0150   -35.1940 h1         1 WC2       0.032033
     25 H12         -3.8490    18.6000   -33.5110 h1         1 WC2       0.032033
@<TRIPOS>BOND
     1     1     2 ar  
     2     1     6 ar  
     3     2     3 ar  
     4     2    14 1   
     5     3     7 ar  
     6     4     9 1   
     7     4    12 1   
     8     4    15 1   
     9     4    16 1   
    10     5     6 ar  
    11     5     7 ar  
    12     5    17 1   
    13     6    10 1   
    14     7    11 1   
    15     8     9 1   
    16     8    11 1   
    17     8    18 1   
    18     8    19 1   
    19     9    20 1   
    20     9    21 1   
    21    11    22 1   
    22    12    13 1   
    23    13    23 1   
    24    13    24 1   
    25    13    25 1   
@<TRIPOS>SUBSTRUCTURE
     1 WC2         1 TEMP              0 ****  ****    0 ROOT
