@<TRIPOS>MOLECULE
WC6
   23    24     1     0     0
SMALL
No Charge or Current Charge


@<TRIPOS>ATOM
      1 N1          -6.3710    17.9330   -33.4300 nc         1 WC6      -0.698000
      2 C7          -3.3520    16.1520   -34.4070 c3         1 WC6      -0.010400
      3 C8          -5.7850    16.9230   -34.0490 cd         1 WC6       0.430400
      4 N2          -4.1110    18.1500   -33.1340 nd         1 WC6      -0.531800
      5 C9          -5.3220    18.6280   -32.9020 cc         1 WC6       0.528900
      6 C1          -2.3700    12.3810   -33.9100 ca         1 WC6      -0.067000
      7 C5          -0.3210    11.8820   -35.1280 ca         1 WC6      -0.117000
      8 C6          -3.4380    14.6840   -33.9450 c          1 WC6       0.560700
      9 C4          -0.2820    13.2050   -35.5890 ca         1 WC6       0.156000
     10 C3          -1.2790    14.1210   -35.2170 ca         1 WC6      -0.117000
     11 C2          -2.3420    13.7210   -34.3670 ca         1 WC6      -0.151600
     12 O           -4.3740    14.2920   -33.2550 o          1 WC6      -0.486100
     13 C           -1.3670    11.4690   -34.2870 ca         1 WC6      -0.094000
     14 N           -4.4090    17.0400   -33.8760 na         1 WC6      -0.070700
     15 H1          -3.3950    16.1620   -35.5020 h1         1 WC6       0.088700
     16 H2          -2.3730    16.5380   -34.1000 h1         1 WC6       0.088700
     17 H3          -6.2500    16.1210   -34.6100 h5         1 WC6       0.062100
     18 H4          -5.5180    19.5280   -32.3280 h5         1 WC6       0.066100
     19 H5          -3.1700    12.0370   -33.2570 ha         1 WC6       0.143000
     20 H6           0.4560    11.1810   -35.4220 ha         1 WC6       0.138000
     21 H7          -1.2090    15.1360   -35.6000 ha         1 WC6       0.131000
     22 H8          -1.4020    10.4430   -33.9260 ha         1 WC6       0.128000
     23 F            0.7240    13.6020   -36.3990 f          1 WC6      -0.178000
@<TRIPOS>BOND
     1     1     3 2   
     2     1     5 1   
     3     2     8 1   
     4     2    14 1   
     5     2    15 1   
     6     2    16 1   
     7     3    14 1   
     8     3    17 1   
     9     4     5 2   
    10     4    14 1   
    11     5    18 1   
    12     6    11 ar  
    13     6    13 ar  
    14     6    19 1   
    15     7     9 ar  
    16     7    13 ar  
    17     7    20 1   
    18     8    11 1   
    19     8    12 2   
    20     9    10 ar  
    21     9    23 1   
    22    10    11 ar  
    23    10    21 1   
    24    13    22 1   
@<TRIPOS>SUBSTRUCTURE
     1 WC6         1 TEMP              0 ****  ****    0 ROOT
