@<TRIPOS>MOLECULE
WC6
   23    24     1     0     0
SMALL
abcg2


@<TRIPOS>ATOM
      1 N1          -6.2930    17.9700   -33.5820 nc         1 WC6      -0.698000
      2 C7          -3.3590    16.1380   -34.5380 c3         1 WC6      -0.010400
      3 C8          -5.6420    17.1760   -34.4170 cd         1 WC6       0.430400
      4 N2          -4.1920    17.6600   -32.8270 nd         1 WC6      -0.531800
      5 C9          -5.3620    18.2370   -32.6260 cc         1 WC6       0.528900
      6 C1          -2.3040    12.5120   -33.7460 ca         1 WC6      -0.067000
      7 C5          -0.3860    11.9030   -35.0740 ca         1 WC6      -0.117000
      8 C6          -3.3670    14.7480   -33.8990 c          1 WC6       0.560700
      9 C4          -0.4190    13.1660   -35.6370 ca         1 WC6       0.156000
     10 C3          -1.3580    14.1160   -35.2900 ca         1 WC6      -0.117000
     11 C2          -2.3180    13.7840   -34.3270 ca         1 WC6      -0.151600
     12 O           -4.2130    14.4550   -33.0790 o          1 WC6      -0.486100
     13 C           -1.3450    11.5820   -34.1180 ca         1 WC6      -0.094000
     14 N           -4.3840    16.9880   -33.9900 na         1 WC6      -0.070700
     15 H1          -3.5220    16.0420   -35.6130 h1         1 WC6       0.088700
     16 H2          -2.3930    16.6180   -34.3890 h1         1 WC6       0.088700
     17 H3          -6.0250    16.7350   -35.3240 h5         1 WC6       0.062100
     18 H4          -5.5490    18.8700   -31.7720 h5         1 WC6       0.066100
     19 H5          -3.0500    12.2660   -33.0040 ha         1 WC6       0.143000
     20 H6           0.3730    11.1950   -35.3800 ha         1 WC6       0.138000
     21 H7          -1.3250    15.0830   -35.7720 ha         1 WC6       0.131000
     22 H8          -1.3370    10.6000   -33.6640 ha         1 WC6       0.128000
     23 F            0.5090    13.4860   -36.5710 f          1 WC6      -0.178000
@<TRIPOS>BOND
     1     1     3 2   
     2     1     5 1   
     3     2     8 1   
     4     2    14 1   
     5     2    15 1   
     6     2    16 1   
     7     3    14 1   
     8     3    17 1   
     9     4     5 2   
    10     4    14 1   
    11     5    18 1   
    12     6    11 ar  
    13     6    13 ar  
    14     6    19 1   
    15     7     9 ar  
    16     7    13 ar  
    17     7    20 1   
    18     8    11 1   
    19     8    12 2   
    20     9    10 ar  
    21     9    23 1   
    22    10    11 ar  
    23    10    21 1   
    24    13    22 1   
@<TRIPOS>SUBSTRUCTURE
     1 WC6         1 TEMP              0 ****  ****    0 ROOT
