@<TRIPOS>MOLECULE
WC9
   76    79     1     0     0
SMALL
abcg2


@<TRIPOS>ATOM
      1 N           83.8530   -58.7740    -5.6390 n7         1 WC9      -0.826400
      2 CA          82.8770   -57.7990    -5.1600 c5         1 WC9       0.066500
      3 C           81.7510   -57.6210    -6.1730 c          1 WC9       0.612100
      4 O           81.9750   -57.6130    -7.3750 o          1 WC9      -0.604100
      5 CB          83.6510   -56.4620    -4.9350 c5         1 WC9       0.165300
      6 CG          84.9770   -56.6660    -5.6640 c5         1 WC9      -0.129700
      7 CD1         85.1670   -58.1670    -5.4650 c5         1 WC9       0.143800
      8 CD2         86.1210   -55.8310    -5.1140 c3         1 WC9      -0.061400
      9 CAB         78.4000   -58.5780    -6.0170 c6         1 WC9       0.143300
     10 CAC         78.9720   -59.9510    -6.3360 c6         1 WC9       0.157300
     11 CAD         77.9440   -60.9990    -5.9040 c6         1 WC9       0.136300
     12 CAE         76.5820   -60.7160    -6.5300 c6         1 WC9       0.116300
     13 CAF         76.1530   -59.2640    -6.2660 c6         1 WC9       0.290300
     14 CAK         79.2940   -57.3920    -6.3880 c3         1 WC9       0.133700
     15 CAM         78.5720   -56.0470    -6.1360 c3         1 WC9      -0.037500
     16 CAN         79.4640   -54.8670    -6.5100 c3         1 WC9      -0.087100
     17 CAO         74.7920   -57.4470    -4.5950 c3         1 WC9       0.076600
     18 CAX         83.4920   -54.2130    -5.8030 c3         1 WC9       0.170600
     19 CAY         84.7030   -53.7140    -5.0200 c3         1 WC9      -0.110400
     20 CAZ         86.0430   -54.3360    -5.4220 c3         1 WC9      -0.055700
     21 CBB         87.2240   -53.6290    -4.7500 c3         1 WC9      -0.070400
     22 CBC         87.4240   -52.1440    -5.0610 c3         1 WC9      -0.059700
     23 CBD         87.6110   -51.8890    -6.5530 c3         1 WC9      -0.088600
     24 CBE         88.6190   -51.6110    -4.2760 c3         1 WC9      -0.088600
     25 CBF         78.1070   -55.9320    -4.7130 c2         1 WC9      -0.214200
     26 CBG         75.6070   -56.2330    -5.0410 c3         1 WC9      -0.041200
     27 CBH         76.8590   -56.0230    -4.2530 c2         1 WC9      -0.207200
     28 NAL         80.5260   -57.5030    -5.6370 ns         1 WC9      -0.493900
     29 OAA         77.1670   -58.3960    -6.6780 os         1 WC9      -0.423000
     30 OAH         75.6780   -61.6620    -6.0260 oh         1 WC9      -0.710000
     31 OAI         78.4350   -62.2610    -6.2830 oh         1 WC9      -0.667000
     32 OAJ         79.2580   -60.0250    -7.7100 oh         1 WC9      -0.704000
     33 OAW         82.8520   -55.3740    -5.3140 os         1 WC9      -0.461000
     34 SAG         75.6660   -59.0380    -4.5200 ss         1 WC9      -0.469000
     35 H1          83.7010   -58.9140    -6.6310 hn         1 WC9       0.431000
     36 H3          82.4540   -58.1310    -4.2060 h1         1 WC9       0.073700
     37 H4          83.8780   -56.3840    -3.8610 h1         1 WC9       0.042700
     38 H5          84.8460   -56.4770    -6.7370 hc         1 WC9       0.074700
     39 H6          85.5390   -58.3620    -4.4520 h1         1 WC9       0.056200
     40 H7          85.8870   -58.6020    -6.1590 h1         1 WC9       0.056200
     41 H8          86.1680   -55.9750    -4.0280 hc         1 WC9       0.042200
     42 H9          87.0660   -56.2150    -5.5120 hc         1 WC9       0.042200
     43 H10         78.2410   -58.5400    -4.9290 h1         1 WC9       0.063700
     44 H11         79.8780   -60.1000    -5.7320 h1         1 WC9       0.056700
     45 H12         77.8470   -60.9310    -4.8080 h1         1 WC9       0.060700
     46 H13         76.6830   -60.8080    -7.6200 h1         1 WC9       0.065700
     47 H15         79.5550   -57.4380    -7.4470 h1         1 WC9       0.110700
     48 H16         77.7120   -56.0350    -6.8040 hc         1 WC9       0.069700
     49 H17         78.9050   -53.9330    -6.4460 hc         1 WC9       0.041033
     50 H18         80.3260   -54.7890    -5.8470 hc         1 WC9       0.041033
     51 H19         79.8350   -54.9640    -7.5320 hc         1 WC9       0.041033
     52 H20         74.4290   -57.3010    -3.5760 h1         1 WC9       0.066200
     53 H21         73.9120   -57.5560    -5.2330 h1         1 WC9       0.066200
     54 H22         83.7780   -54.3440    -6.8560 h1         1 WC9       0.045700
     55 H23         82.7140   -53.4460    -5.7880 h1         1 WC9       0.045700
     56 H24         84.5340   -53.8250    -3.9430 hc         1 WC9       0.049700
     57 H25         84.7540   -52.6370    -5.2010 hc         1 WC9       0.049700
     58 H26         86.1380   -54.2240    -6.5100 hc         1 WC9       0.049700
     59 H27         87.1250   -53.7500    -3.6640 hc         1 WC9       0.038700
     60 H28         88.1450   -54.1570    -5.0270 hc         1 WC9       0.038700
     61 H29         86.5400   -51.5890    -4.7280 hc         1 WC9       0.044700
     62 H30         87.8140   -50.8340    -6.7470 hc         1 WC9       0.033033
     63 H31         88.4560   -52.4640    -6.9410 hc         1 WC9       0.033033
     64 H32         86.7300   -52.1630    -7.1340 hc         1 WC9       0.033033
     65 H33         88.4930   -51.7660    -3.2020 hc         1 WC9       0.033033
     66 H34         89.5400   -52.1150    -4.5770 hc         1 WC9       0.033033
     67 H35         88.7580   -50.5410    -4.4430 hc         1 WC9       0.033033
     68 H36         78.8920   -55.7570    -3.9800 ha         1 WC9       0.166000
     69 H37         74.9540   -55.3640    -4.9010 hc         1 WC9       0.054700
     70 H38         75.8060   -56.2920    -6.1090 hc         1 WC9       0.054700
     71 H39         76.7140   -55.9210    -3.1800 ha         1 WC9       0.167000
     72 H40         80.4500   -57.5460    -4.6320 hn         1 WC9       0.310500
     73 H41         74.8830   -61.6580    -6.5680 ho         1 WC9       0.513000
     74 H42         77.7490   -62.9180    -6.1240 ho         1 WC9       0.467000
     75 H43         79.5170   -60.9290    -7.9130 ho         1 WC9       0.520000
     76 H14         75.2800   -59.0190    -6.8770 h2         1 WC9       0.087700
@<TRIPOS>BOND
     1     1     2 1   
     2     1     7 1   
     3     1    35 1   
     4     2     3 1   
     5     2     5 1   
     6     2    36 1   
     7     3     4 2   
     8     3    28 1   
     9     5     6 1   
    10     5    33 1   
    11     5    37 1   
    12     6     7 1   
    13     6     8 1   
    14     6    38 1   
    15     7    39 1   
    16     7    40 1   
    17     8    20 1   
    18     8    41 1   
    19     8    42 1   
    20     9    10 1   
    21     9    14 1   
    22     9    29 1   
    23     9    43 1   
    24    10    11 1   
    25    10    32 1   
    26    10    44 1   
    27    11    12 1   
    28    11    31 1   
    29    11    45 1   
    30    12    13 1   
    31    12    30 1   
    32    12    46 1   
    33    13    29 1   
    34    13    34 1   
    35    13    76 1   
    36    14    15 1   
    37    14    28 1   
    38    14    47 1   
    39    15    16 1   
    40    15    25 1   
    41    15    48 1   
    42    16    49 1   
    43    16    50 1   
    44    16    51 1   
    45    17    26 1   
    46    17    34 1   
    47    17    52 1   
    48    17    53 1   
    49    18    19 1   
    50    18    33 1   
    51    18    54 1   
    52    18    55 1   
    53    19    20 1   
    54    19    56 1   
    55    19    57 1   
    56    20    21 1   
    57    20    58 1   
    58    21    22 1   
    59    21    59 1   
    60    21    60 1   
    61    22    23 1   
    62    22    24 1   
    63    22    61 1   
    64    23    62 1   
    65    23    63 1   
    66    23    64 1   
    67    24    65 1   
    68    24    66 1   
    69    24    67 1   
    70    25    27 2   
    71    25    68 1   
    72    26    27 1   
    73    26    69 1   
    74    26    70 1   
    75    27    71 1   
    76    28    72 1   
    77    30    73 1   
    78    31    74 1   
    79    32    75 1   
@<TRIPOS>SUBSTRUCTURE
     1 WC9         1 TEMP              0 ****  ****    0 ROOT
