@<TRIPOS>MOLECULE
WC9
   76    79     1     0     0
SMALL
No Charge or Current Charge


@<TRIPOS>ATOM
      1 N           84.0370   -58.7630    -6.1640 n7         1 WC9      -0.826400
      2 CA          82.9610   -57.8350    -5.6530 c5         1 WC9       0.066500
      3 C           81.7370   -57.6680    -6.6320 c          1 WC9       0.612100
      4 O           81.7630   -57.7190    -7.8570 o          1 WC9      -0.604100
      5 CB          83.6820   -56.4620    -5.3750 c5         1 WC9       0.165300
      6 CG          85.1370   -56.7020    -5.8760 c5         1 WC9      -0.129700
      7 CD1         85.2790   -58.2160    -5.5880 c5         1 WC9       0.143800
      8 CD2         86.1820   -55.8300    -5.1370 c3         1 WC9      -0.061400
      9 CAB         78.3140   -58.6510    -5.9920 c6         1 WC9       0.143300
     10 CAC         78.8590   -60.0770    -6.3240 c6         1 WC9       0.157300
     11 CAD         77.8510   -61.1260    -5.7590 c6         1 WC9       0.136300
     12 CAE         76.3980   -60.8550    -6.2680 c6         1 WC9       0.116300
     13 CAF         75.9870   -59.3640    -5.9890 c6         1 WC9       0.290300
     14 CAK         79.2160   -57.4720    -6.4850 c3         1 WC9       0.133700
     15 CAM         78.5960   -56.0620    -6.2250 c3         1 WC9      -0.037500
     16 CAN         79.4980   -54.9030    -6.7100 c3         1 WC9      -0.087100
     17 CAO         74.8240   -57.3300    -4.2800 c3         1 WC9       0.076600
     18 CAX         83.7610   -54.1920    -6.4840 c3         1 WC9       0.170600
     19 CAY         84.6980   -53.7050    -5.3490 c3         1 WC9      -0.110400
     20 CAZ         86.1370   -54.3030    -5.4230 c3         1 WC9      -0.055700
     21 CBB         87.1510   -53.5720    -4.4880 c3         1 WC9      -0.070400
     22 CBC         87.3880   -52.0510    -4.7300 c3         1 WC9      -0.059700
     23 CBD         87.8330   -51.7280    -6.1760 c3         1 WC9      -0.088600
     24 CBE         88.4040   -51.4910    -3.7090 c3         1 WC9      -0.088600
     25 CBF         78.2130   -55.8660    -4.7580 c2         1 WC9      -0.214200
     26 CBG         75.6470   -56.1710    -4.8960 c3         1 WC9      -0.041200
     27 CBH         76.9830   -55.9160    -4.2060 c2         1 WC9      -0.207200
     28 NAL         80.5670   -57.5670    -5.9020 ns         1 WC9      -0.493900
     29 OAA         76.9840   -58.4850    -6.5500 os         1 WC9      -0.423000
     30 OAH         75.4840   -61.8220    -5.6890 oh         1 WC9      -0.710000
     31 OAI         78.2530   -62.4600    -6.1260 oh         1 WC9      -0.667000
     32 OAJ         79.0210   -60.2920    -7.7410 oh         1 WC9      -0.704000
     33 OAW         83.0450   -55.3980    -6.1320 os         1 WC9      -0.461000
     34 SAG         75.7360   -58.9510    -4.1870 ss         1 WC9      -0.469000
     35 H1          84.0860   -58.6480    -7.1870 hn         1 WC9       0.431000
     36 H3          82.5790   -58.2270    -4.7000 h1         1 WC9       0.073700
     37 H4          83.6530   -56.2170    -4.3040 h1         1 WC9       0.042700
     38 H5          85.2370   -56.5170    -6.9520 hc         1 WC9       0.074700
     39 H6          85.3350   -58.4180    -4.5080 h1         1 WC9       0.056200
     40 H7          86.1740   -58.6470    -6.0600 h1         1 WC9       0.056200
     41 H8          86.0720   -55.9870    -4.0560 hc         1 WC9       0.042200
     42 H9          87.1860   -56.1940    -5.3880 hc         1 WC9       0.042200
     43 H10         78.2610   -58.5570    -4.8990 h1         1 WC9       0.063700
     44 H11         79.8220   -60.2150    -5.8100 h1         1 WC9       0.056700
     45 H12         77.8480   -61.0310    -4.6620 h1         1 WC9       0.060700
     46 H13         76.4010   -60.9760    -7.3620 h1         1 WC9       0.065700
     47 H15         79.3010   -57.5890    -7.5740 h1         1 WC9       0.110700
     48 H16         77.6990   -56.0020    -6.8490 hc         1 WC9       0.069700
     49 H17         78.9610   -53.9500    -6.6450 hc         1 WC9       0.041033
     50 H18         80.4040   -54.8210    -6.0980 hc         1 WC9       0.041033
     51 H19         79.7980   -55.0540    -7.7540 hc         1 WC9       0.041033
     52 H20         74.5300   -57.0490    -3.2600 h1         1 WC9       0.066200
     53 H21         73.9040   -57.4710    -4.8620 h1         1 WC9       0.066200
     54 H22         84.3450   -54.3400    -7.4020 h1         1 WC9       0.045700
     55 H23         83.0330   -53.3990    -6.7000 h1         1 WC9       0.045700
     56 H24         84.2480   -53.8870    -4.3650 hc         1 WC9       0.049700
     57 H25         84.7590   -52.6180    -5.4560 hc         1 WC9       0.049700
     58 H26         86.4900   -54.1750    -6.4530 hc         1 WC9       0.049700
     59 H27         86.8220   -53.7100    -3.4500 hc         1 WC9       0.038700
     60 H28         88.1200   -54.0810    -4.5680 hc         1 WC9       0.038700
     61 H29         86.4480   -51.5190    -4.5460 hc         1 WC9       0.044700
     62 H30         88.0520   -50.6590    -6.2830 hc         1 WC9       0.033033
     63 H31         88.7360   -52.2910    -6.4420 hc         1 WC9       0.033033
     64 H32         87.0450   -51.9740    -6.8970 hc         1 WC9       0.033033
     65 H33         88.0650   -51.6720    -2.6820 hc         1 WC9       0.033033
     66 H34         89.3860   -51.9630    -3.8340 hc         1 WC9       0.033033
     67 H35         88.5260   -50.4080    -3.8360 hc         1 WC9       0.033033
     68 H36         79.0690   -55.6660    -4.1110 ha         1 WC9       0.166000
     69 H37         75.0380   -55.2620    -4.8280 hc         1 WC9       0.054700
     70 H38         75.7600   -56.3540    -5.9670 hc         1 WC9       0.054700
     71 H39         76.8840   -55.7550    -3.1310 ha         1 WC9       0.167000
     72 H40         80.6570   -57.5280    -4.8950 hn         1 WC9       0.310500
     73 H41         74.5720   -61.5880    -5.9820 ho         1 WC9       0.513000
     74 H42         77.4630   -63.0190    -5.9350 ho         1 WC9       0.467000
     75 H43         79.0220   -61.2750    -7.8370 ho         1 WC9       0.520000
     76 H14         75.0230   -59.1710    -6.4840 h2         1 WC9       0.087700
@<TRIPOS>BOND
     1     1     2 1   
     2     1     7 1   
     3     1    35 1   
     4     2     3 1   
     5     2     5 1   
     6     2    36 1   
     7     3     4 2   
     8     3    28 1   
     9     5     6 1   
    10     5    33 1   
    11     5    37 1   
    12     6     7 1   
    13     6     8 1   
    14     6    38 1   
    15     7    39 1   
    16     7    40 1   
    17     8    20 1   
    18     8    41 1   
    19     8    42 1   
    20     9    10 1   
    21     9    14 1   
    22     9    29 1   
    23     9    43 1   
    24    10    11 1   
    25    10    32 1   
    26    10    44 1   
    27    11    12 1   
    28    11    31 1   
    29    11    45 1   
    30    12    13 1   
    31    12    30 1   
    32    12    46 1   
    33    13    29 1   
    34    13    34 1   
    35    13    76 1   
    36    14    15 1   
    37    14    28 1   
    38    14    47 1   
    39    15    16 1   
    40    15    25 1   
    41    15    48 1   
    42    16    49 1   
    43    16    50 1   
    44    16    51 1   
    45    17    26 1   
    46    17    34 1   
    47    17    52 1   
    48    17    53 1   
    49    18    19 1   
    50    18    33 1   
    51    18    54 1   
    52    18    55 1   
    53    19    20 1   
    54    19    56 1   
    55    19    57 1   
    56    20    21 1   
    57    20    58 1   
    58    21    22 1   
    59    21    59 1   
    60    21    60 1   
    61    22    23 1   
    62    22    24 1   
    63    22    61 1   
    64    23    62 1   
    65    23    63 1   
    66    23    64 1   
    67    24    65 1   
    68    24    66 1   
    69    24    67 1   
    70    25    27 2   
    71    25    68 1   
    72    26    27 1   
    73    26    69 1   
    74    26    70 1   
    75    27    71 1   
    76    28    72 1   
    77    30    73 1   
    78    31    74 1   
    79    32    75 1   
@<TRIPOS>SUBSTRUCTURE
     1 WC9         1 TEMP              0 ****  ****    0 ROOT
