@<TRIPOS>MOLECULE
WCB
   30    31     1     0     0
SMALL
abcg2


@<TRIPOS>ATOM
      1 C7          45.4370    26.7020    26.2590 cc         1 WCB      -0.092300
      2 C8          46.2140    27.1280    25.1390 cc         1 WCB      -0.110000
      3 C9          47.4950    26.6610    25.1660 cd         1 WCB      -0.236000
      4 C1          40.2550    28.5230    25.8020 c6         1 WCB       0.147300
      5 C5          43.0440    26.2760    25.5770 c          1 WCB       0.603100
      6 C6          44.0010    27.0690    26.4700 c3         1 WCB      -0.082100
      7 C4          39.8710    26.8800    24.1430 c6         1 WCB       0.136600
      8 C3          40.7350    25.8660    24.8740 c6         1 WCB       0.059000
      9 C2          41.1370    27.5520    26.5850 c6         1 WCB       0.072000
     10 C10         46.1630    25.9170    27.1110 cd         1 WCB      -0.226000
     11 S           47.7790    25.6910    26.5610 ss         1 WCB       0.187000
     12 N           41.7260    26.5660    25.6860 n          1 WCB      -0.423800
     13 O           39.2730    27.8030    25.0510 os         1 WCB      -0.458000
     14 C           39.5310    29.4890    26.7130 c3         1 WCB      -0.088100
     15 H1          45.8250    27.7560    24.3490 ha         1 WCB       0.134000
     16 H2          48.2860    26.8320    24.4530 h4         1 WCB       0.150000
     17 H3          40.8950    29.0720    25.0970 h1         1 WCB       0.040700
     18 H4          43.8590    28.1350    26.2740 hc         1 WCB       0.062700
     19 H5          43.7220    26.9050    27.5130 hc         1 WCB       0.062700
     20 H7          39.0550    26.3780    23.6230 h1         1 WCB       0.055700
     21 H8          40.1100    25.2470    25.5270 h1         1 WCB       0.070200
     22 H9          41.2520    25.2220    24.1680 h1         1 WCB       0.070200
     23 H10         40.5240    27.0330    27.3310 h1         1 WCB       0.055700
     24 H11         41.9070    28.1080    27.1080 h1         1 WCB       0.055700
     25 H12         45.8330    25.4620    28.0320 h4         1 WCB       0.147000
     26 H13         40.2480    30.0780    27.2880 hc         1 WCB       0.047367
     27 H14         38.9130    30.1710    26.1280 hc         1 WCB       0.047367
     28 H15         38.8880    28.9470    27.4100 hc         1 WCB       0.047367
     29 H6          40.4790    27.4250    23.4100 h1         1 WCB       0.055700
     30 O1          43.4620    25.4130    24.8040 o          1 WCB      -0.593100
@<TRIPOS>BOND
     1     1     2 1   
     2     1     6 1   
     3     1    10 2   
     4     2     3 2   
     5     2    15 1   
     6     3    11 1   
     7     3    16 1   
     8     4     9 1   
     9     4    13 1   
    10     4    14 1   
    11     4    17 1   
    12     5     6 1   
    13     5    12 1   
    14     5    30 2   
    15     6    18 1   
    16     6    19 1   
    17     7     8 1   
    18     7    13 1   
    19     7    20 1   
    20     7    29 1   
    21     8    12 1   
    22     8    21 1   
    23     8    22 1   
    24     9    12 1   
    25     9    23 1   
    26     9    24 1   
    27    10    11 1   
    28    10    25 1   
    29    14    26 1   
    30    14    27 1   
    31    14    28 1   
@<TRIPOS>SUBSTRUCTURE
     1 WCB         1 TEMP              0 ****  ****    0 ROOT
