@<TRIPOS>MOLECULE
WCB
   30    31     1     0     0
SMALL
No Charge or Current Charge


@<TRIPOS>ATOM
      1 C7          45.6050    26.6060    26.3150 cc         1 WCB      -0.092300
      2 C8          46.4810    26.8670    25.2290 cc         1 WCB      -0.110000
      3 C9          47.7390    26.3470    25.3770 cd         1 WCB      -0.236000
      4 C1          39.9740    28.5590    25.8230 c6         1 WCB       0.147300
      5 C5          43.1370    26.3010    25.5260 c          1 WCB       0.603100
      6 C6          44.1830    27.1100    26.3220 c3         1 WCB      -0.082100
      7 C4          39.5420    26.8700    24.1940 c6         1 WCB       0.136600
      8 C3          40.8230    26.0790    24.5630 c6         1 WCB       0.059000
      9 C2          41.2930    27.8780    26.2870 c6         1 WCB       0.072000
     10 C10         46.2110    25.8770    27.3070 cd         1 WCB      -0.226000
     11 S           47.8950    25.4860    26.9150 ss         1 WCB       0.187000
     12 N           41.8480    26.8570    25.3340 n          1 WCB      -0.423800
     13 O           39.0410    27.5800    25.3400 os         1 WCB      -0.458000
     14 C           39.2760    29.3330    26.9670 c3         1 WCB      -0.088100
     15 H1          46.1660    27.4340    24.3570 ha         1 WCB       0.134000
     16 H2          48.5790    26.4080    24.6960 h4         1 WCB       0.150000
     17 H3          40.1980    29.2660    25.0100 h1         1 WCB       0.040700
     18 H4          44.1330    28.1500    25.9790 hc         1 WCB       0.062700
     19 H5          43.8040    27.2190    27.3450 hc         1 WCB       0.062700
     20 H7          38.7690    26.1800    23.8270 h1         1 WCB       0.055700
     21 H8          40.5310    25.2020    25.1580 h1         1 WCB       0.070200
     22 H9          41.2740    25.7000    23.6340 h1         1 WCB       0.070200
     23 H10         41.1180    27.3840    27.2530 h1         1 WCB       0.055700
     24 H11         42.0310    28.6720    26.4610 h1         1 WCB       0.055700
     25 H12         45.7840    25.5400    28.2440 h4         1 WCB       0.147000
     26 H13         39.9280    30.1200    27.3630 hc         1 WCB       0.047367
     27 H14         38.3560    29.8120    26.6120 hc         1 WCB       0.047367
     28 H15         39.0120    28.6660    27.7970 hc         1 WCB       0.047367
     29 H6          39.7640    27.5880    23.3910 h1         1 WCB       0.055700
     30 O1          43.4220    25.2170    25.0280 o          1 WCB      -0.593100
@<TRIPOS>BOND
     1     1     2 1   
     2     1     6 1   
     3     1    10 2   
     4     2     3 2   
     5     2    15 1   
     6     3    11 1   
     7     3    16 1   
     8     4     9 1   
     9     4    13 1   
    10     4    14 1   
    11     4    17 1   
    12     5     6 1   
    13     5    12 1   
    14     5    30 2   
    15     6    18 1   
    16     6    19 1   
    17     7     8 1   
    18     7    13 1   
    19     7    20 1   
    20     7    29 1   
    21     8    12 1   
    22     8    21 1   
    23     8    22 1   
    24     9    12 1   
    25     9    23 1   
    26     9    24 1   
    27    10    11 1   
    28    10    25 1   
    29    14    26 1   
    30    14    27 1   
    31    14    28 1   
@<TRIPOS>SUBSTRUCTURE
     1 WCB         1 TEMP              0 ****  ****    0 ROOT
