@<TRIPOS>MOLECULE
WCD
   57    58     1     0     0
SMALL
No Charge or Current Charge


@<TRIPOS>ATOM
      1 C13         30.5530   -24.0940   -21.6860 c3         1 WCD       0.162600
      2 C14         29.9040   -24.1450   -19.2160 c3         1 WCD      -0.085600
      3 C15         30.7270   -26.2640   -20.3530 c3         1 WCD      -0.085600
      4 C16         29.9000   -24.9540   -20.5490 c3         1 WCD      -0.068000
      5 C18         28.4250   -25.3260   -20.9680 c3         1 WCD       0.086300
      6 C19         27.5260   -24.0800   -21.2850 c          1 WCD       0.601100
      7 C21         25.7790   -22.5450   -20.2960 c3         1 WCD       0.096000
      8 C22         26.5350   -21.2290   -20.0300 c3         1 WCD      -0.175400
      9 C23         25.5650   -20.0490   -20.0240 c          1 WCD       0.617100
     10 C01         17.8590   -19.5030   -19.4570 cy         1 WCD      -0.205400
     11 C02         18.2730   -20.5350   -20.5390 c          1 WCD       0.538000
     12 C04         19.3500   -19.5930   -18.9900 cy         1 WCD       0.042700
     13 C05         20.8250   -20.9300   -20.4580 c5         1 WCD      -0.033300
     14 C06         21.6430   -19.7760   -19.7830 c5         1 WCD       0.072300
     15 C07         20.5190   -18.7130   -19.5160 c5         1 WCD      -0.099400
     16 C09         21.4730   -22.3370   -20.2440 c          1 WCD       0.735000
     17 C24         23.2680   -18.8380   -17.5380 c3         1 WCD      -0.005400
     18 C26         24.3890   -18.4090   -18.5090 c3         1 WCD       0.109000
     19 N03         19.4940   -20.7410   -19.8880 nj         1 WCD      -0.307800
     20 N20         26.6830   -23.6990   -20.2640 ns         1 WCD      -0.472900
     21 N27         25.3310   -19.4990   -18.7840 ns         1 WCD      -0.503900
     22 O10         25.0690   -19.6040   -21.0490 o          1 WCD      -0.581100
     23 O11         27.5190   -23.5150   -22.3730 o          1 WCD      -0.627100
     24 O12         31.9300   -23.7930   -21.4120 oh         1 WCD      -0.672000
     25 O17         27.8110   -26.1860   -19.9680 oh         1 WCD      -0.658000
     26 O28         20.8940   -23.1830   -19.5710 o          1 WCD      -0.703500
     27 O29         22.4830   -22.6080   -20.8780 o          1 WCD      -0.703500
     28 S25         22.3230   -20.3270   -18.1230 ss         1 WCD      -0.351000
     29 H1          29.9960   -23.1550   -21.8000 h1         1 WCD       0.036200
     30 H2          30.4730   -24.6400   -22.6370 h1         1 WCD       0.036200
     31 H3          29.4170   -24.7030   -18.4080 hc         1 WCD       0.038200
     32 H4          30.9290   -23.9270   -18.8900 hc         1 WCD       0.038200
     33 H5          29.3830   -23.1880   -19.3300 hc         1 WCD       0.038200
     34 H6          30.3220   -26.8820   -19.5430 hc         1 WCD       0.038200
     35 H7          30.7310   -26.8650   -21.2710 hc         1 WCD       0.038200
     36 H8          31.7690   -26.0450   -20.0910 hc         1 WCD       0.038200
     37 H9          28.4840   -25.8800   -21.9140 h1         1 WCD       0.052700
     38 H10         25.2830   -22.4980   -21.2760 h1         1 WCD       0.104200
     39 H11         24.9970   -22.6840   -19.5360 h1         1 WCD       0.104200
     40 H12         27.0440   -21.3090   -19.0610 hc         1 WCD       0.046700
     41 H13         27.2720   -21.0800   -20.8270 hc         1 WCD       0.046700
     42 H15         17.1060   -19.9140   -18.7770 hc         1 WCD       0.061700
     43 H16         19.4710   -19.8750   -17.9360 h1         1 WCD       0.086700
     44 H17         20.7490   -20.7610   -21.5400 h1         1 WCD       0.054700
     45 H18         22.4500   -19.4070   -20.4280 h1         1 WCD       0.091700
     46 H19         20.8180   -17.9320   -18.8100 hc         1 WCD       0.038200
     47 H20         20.2490   -18.2010   -20.4480 hc         1 WCD       0.038200
     48 H21         23.7130   -19.0780   -16.5640 h1         1 WCD       0.052200
     49 H22         22.5750   -18.0010   -17.3900 h1         1 WCD       0.052200
     50 H23         24.9470   -17.5750   -18.0640 h1         1 WCD       0.046200
     51 H24         23.9460   -18.0460   -19.4440 h1         1 WCD       0.046200
     52 H25         26.7190   -24.2820   -19.4340 hn         1 WCD       0.331500
     53 H26         25.8020   -19.9330   -18.0000 hn         1 WCD       0.300500
     54 H27         32.2640   -23.2600   -22.1670 ho         1 WCD       0.440000
     55 H28         28.3530   -27.0030   -19.9100 ho         1 WCD       0.449000
     56 O08         17.7900   -20.9600   -21.5780 o          1 WCD      -0.529000
     57 H14         17.5350   -18.5500   -19.8850 hc         1 WCD       0.061700
@<TRIPOS>BOND
     1     1     4 1   
     2     1    24 1   
     3     1    29 1   
     4     1    30 1   
     5     2     4 1   
     6     2    31 1   
     7     2    32 1   
     8     2    33 1   
     9     3     4 1   
    10     3    34 1   
    11     3    35 1   
    12     3    36 1   
    13     4     5 1   
    14     5     6 1   
    15     5    25 1   
    16     5    37 1   
    17     6    20 1   
    18     6    23 2   
    19     7     8 1   
    20     7    20 1   
    21     7    38 1   
    22     7    39 1   
    23     8     9 1   
    24     8    40 1   
    25     8    41 1   
    26     9    21 1   
    27     9    22 2   
    28    10    11 1   
    29    10    12 1   
    30    10    42 1   
    31    10    57 1   
    32    11    19 1   
    33    11    56 2   
    34    12    15 1   
    35    12    19 1   
    36    12    43 1   
    37    13    14 1   
    38    13    16 1   
    39    13    19 1   
    40    13    44 1   
    41    14    15 1   
    42    14    28 1   
    43    14    45 1   
    44    15    46 1   
    45    15    47 1   
    46    16    26 1   
    47    16    27 1   
    48    17    18 1   
    49    17    28 1   
    50    17    48 1   
    51    17    49 1   
    52    18    21 1   
    53    18    50 1   
    54    18    51 1   
    55    20    52 1   
    56    21    53 1   
    57    24    54 1   
    58    25    55 1   
@<TRIPOS>SUBSTRUCTURE
     1 WCD         1 TEMP              0 ****  ****    0 ROOT
