@<TRIPOS>MOLECULE
WCD
   57    58     1     0     0
SMALL
bcc


@<TRIPOS>ATOM
      1 C13         30.7760   -23.9870   -21.4680 c3         1 WCD       0.139400
      2 C14         29.6950   -24.1010   -19.2000 c3         1 WCD      -0.085600
      3 C15         30.7560   -26.1350   -20.2000 c3         1 WCD      -0.085600
      4 C16         29.9640   -24.8570   -20.5020 c3         1 WCD      -0.068000
      5 C18         28.6320   -25.2760   -21.1960 c3         1 WCD       0.063100
      6 C19         27.7250   -24.0870   -21.4960 c          1 WCD       0.668100
      7 C21         25.8110   -22.7690   -20.7320 c3         1 WCD       0.096000
      8 C22         26.3870   -21.5410   -20.0250 c3         1 WCD      -0.175400
      9 C23         25.4370   -20.3650   -20.0790 c          1 WCD       0.684100
     10 C01         17.8740   -19.2600   -19.3550 cy         1 WCD      -0.205400
     11 C02         18.1800   -20.4700   -20.2320 c          1 WCD       0.680500
     12 C04         19.3040   -19.4730   -18.8210 cy         1 WCD       0.042700
     13 C05         20.6600   -20.9390   -20.2450 c5         1 WCD      -0.033300
     14 C06         21.5010   -19.7610   -19.6860 c5         1 WCD       0.024400
     15 C07         20.4620   -18.6710   -19.3940 c5         1 WCD      -0.099400
     16 C09         21.2940   -22.3310   -20.0220 c          1 WCD       0.945600
     17 C24         23.3520   -18.8370   -17.7640 c3         1 WCD      -0.053300
     18 C26         24.4760   -18.5290   -18.7480 c3         1 WCD       0.109000
     19 N03         19.3710   -20.7130   -19.6060 nj         1 WCD      -0.374800
     20 N20         26.7050   -23.8990   -20.6500 ns         1 WCD      -0.539900
     21 N27         25.3670   -19.6410   -18.9480 ns         1 WCD      -0.570900
     22 O10         24.8120   -20.0950   -21.0960 o          1 WCD      -0.581100
     23 O11         27.9430   -23.3600   -22.4570 o          1 WCD      -0.627100
     24 O12         32.0350   -23.7010   -20.8970 oh         1 WCD      -0.609800
     25 O17         27.8920   -26.1920   -20.4260 oh         1 WCD      -0.595800
     26 O28         20.8380   -23.0240   -19.1020 o          1 WCD      -0.808800
     27 O29         22.2280   -22.6000   -20.8030 o          1 WCD      -0.808800
     28 S25         22.3580   -20.2960   -18.1590 ss         1 WCD      -0.255200
     29 H1          30.2350   -23.0610   -21.6810 h1         1 WCD       0.036200
     30 H2          30.8880   -24.5210   -22.4230 h1         1 WCD       0.036200
     31 H3          29.0430   -24.6720   -18.5370 hc         1 WCD       0.038200
     32 H4          30.6250   -23.9210   -18.6630 hc         1 WCD       0.038200
     33 H5          29.2270   -23.1300   -19.3770 hc         1 WCD       0.038200
     34 H6          30.2670   -26.7550   -19.4460 hc         1 WCD       0.038200
     35 H7          30.8970   -26.7390   -21.1000 hc         1 WCD       0.038200
     36 H8          31.7420   -25.8940   -19.8070 hc         1 WCD       0.038200
     37 H9          28.8920   -25.7110   -22.1710 h1         1 WCD       0.052700
     38 H10         25.6110   -22.5420   -21.7770 h1         1 WCD       0.104200
     39 H11         24.8610   -23.0550   -20.2810 h1         1 WCD       0.104200
     40 H12         26.6420   -21.7960   -18.9950 hc         1 WCD       0.046700
     41 H13         27.3180   -21.2470   -20.5180 hc         1 WCD       0.046700
     42 H15         17.0670   -19.3940   -18.6350 hc         1 WCD       0.061700
     43 H16         19.3910   -19.6210   -17.7440 h1         1 WCD       0.086700
     44 H17         20.5540   -20.7820   -21.3240 h1         1 WCD       0.054700
     45 H18         22.2520   -19.4530   -20.4120 h1         1 WCD       0.091700
     46 H19         20.8250   -17.8840   -18.7330 hc         1 WCD       0.038200
     47 H20         20.1690   -18.1980   -20.3370 hc         1 WCD       0.038200
     48 H21         23.7670   -19.0470   -16.7760 h1         1 WCD       0.052200
     49 H22         22.7180   -17.9560   -17.6540 h1         1 WCD       0.052200
     50 H23         25.0380   -17.6760   -18.3600 h1         1 WCD       0.046200
     51 H24         24.0740   -18.2290   -19.7130 h1         1 WCD       0.046200
     52 H25         26.6020   -24.5340   -19.8750 hn         1 WCD       0.331500
     53 H26         25.8880   -19.9610   -18.1480 hn         1 WCD       0.300500
     54 H27         32.4680   -23.0470   -21.4510 ho         1 WCD       0.401000
     55 H28         28.3720   -27.0240   -20.3770 ho         1 WCD       0.410000
     56 O08         17.6550   -21.0100   -21.1750 o          1 WCD      -0.604500
     57 H14         17.7120   -18.3390   -19.9130 hc         1 WCD       0.061700
@<TRIPOS>BOND
     1     1     4 1   
     2     1    24 1   
     3     1    29 1   
     4     1    30 1   
     5     2     4 1   
     6     2    31 1   
     7     2    32 1   
     8     2    33 1   
     9     3     4 1   
    10     3    34 1   
    11     3    35 1   
    12     3    36 1   
    13     4     5 1   
    14     5     6 1   
    15     5    25 1   
    16     5    37 1   
    17     6    20 1   
    18     6    23 2   
    19     7     8 1   
    20     7    20 1   
    21     7    38 1   
    22     7    39 1   
    23     8     9 1   
    24     8    40 1   
    25     8    41 1   
    26     9    21 1   
    27     9    22 2   
    28    10    11 1   
    29    10    12 1   
    30    10    42 1   
    31    10    57 1   
    32    11    19 1   
    33    11    56 2   
    34    12    15 1   
    35    12    19 1   
    36    12    43 1   
    37    13    14 1   
    38    13    16 1   
    39    13    19 1   
    40    13    44 1   
    41    14    15 1   
    42    14    28 1   
    43    14    45 1   
    44    15    46 1   
    45    15    47 1   
    46    16    26 1   
    47    16    27 1   
    48    17    18 1   
    49    17    28 1   
    50    17    48 1   
    51    17    49 1   
    52    18    21 1   
    53    18    50 1   
    54    18    51 1   
    55    20    52 1   
    56    21    53 1   
    57    24    54 1   
    58    25    55 1   
@<TRIPOS>SUBSTRUCTURE
     1 WCD         1 TEMP              0 ****  ****    0 ROOT
