@<TRIPOS>MOLECULE
WCE
   16    16     1     0     0
SMALL
bcc


@<TRIPOS>ATOM
      1 C1          -1.3870    -0.0620     0.0810 ca         1 WCE       0.016400
      2 CL          -2.8340     0.8820     0.2220 cl         1 WCE      -0.103400
      3 C2          -0.1650     0.5810     0.0140 ca         1 WCE      -0.069000
      4 C3           1.0020    -0.1730    -0.0820 ca         1 WCE      -0.145600
      5 C4           0.9200    -1.5620    -0.1340 ca         1 WCE      -0.105000
      6 C5          -0.3160    -2.1890    -0.0780 ca         1 WCE      -0.130000
      7 C6          -1.4800    -1.4450     0.0340 ca         1 WCE      -0.101000
      8 C7           2.3000     0.5720    -0.1680 c          1 WCE       0.683700
      9 N            3.4020    -0.1170     0.1580 nt         1 WCE      -0.669000
     10 O            2.3270     1.7410    -0.5250 o          1 WCE      -0.598100
     11 H2          -0.1130     1.6610     0.0430 ha         1 WCE       0.171000
     12 H6          -2.4430    -1.9350     0.0810 ha         1 WCE       0.149000
     13 H4           1.8080    -2.1710    -0.2410 ha         1 WCE       0.132000
     14 H5          -0.3760    -3.2670    -0.1280 ha         1 WCE       0.139000
     15 HN1          3.3700    -1.0260     0.5870 hn         1 WCE       0.315000
     16 HN2          4.2990     0.3410     0.1320 hn         1 WCE       0.315000
@<TRIPOS>BOND
     1     1     2 1   
     2     1     3 ar  
     3     1     7 ar  
     4     3     4 ar  
     5     3    11 1   
     6     4     5 ar  
     7     4     8 1   
     8     5     6 ar  
     9     5    13 1   
    10     6     7 ar  
    11     6    14 1   
    12     7    12 1   
    13     8     9 1   
    14     8    10 2   
    15     9    15 1   
    16     9    16 1   
@<TRIPOS>SUBSTRUCTURE
     1 WCE         1 TEMP              0 ****  ****    0 ROOT
