@<TRIPOS>MOLECULE
WCE
   16    16     1     0     0
SMALL
No Charge or Current Charge


@<TRIPOS>ATOM
      1 C1          -1.4450    -0.0530    -0.0040 ca         1 WCE       0.108000
      2 Cl          -2.9310     0.8890    -0.0150 cl         1 WCE      -0.195000
      3 C2          -0.2010     0.6000    -0.0140 ca         1 WCE      -0.051000
      4 C3           1.0040    -0.1410    -0.0050 ca         1 WCE      -0.145600
      5 C4           0.9280    -1.5560     0.0130 ca         1 WCE      -0.087000
      6 C5          -0.3200    -2.2050     0.0230 ca         1 WCE      -0.112000
      7 C6          -1.5070    -1.4550     0.0140 ca         1 WCE      -0.083000
      8 C7           2.3270     0.5940    -0.0160 c          1 WCE       0.616700
      9 N            3.4650    -0.1330    -0.0080 nt         1 WCE      -0.602000
     10 O            2.4030     1.8120    -0.0320 o          1 WCE      -0.598100
     11 H2          -0.1790     1.6870    -0.0280 ha         1 WCE       0.153000
     12 H6          -2.4710    -1.9570     0.0220 ha         1 WCE       0.131000
     13 H4           1.8270    -2.1670     0.0200 ha         1 WCE       0.114000
     14 H5          -0.3660    -3.2920     0.0370 ha         1 WCE       0.121000
     15 HN1          3.4250    -1.1400     0.0050 hn         1 WCE       0.315000
     16 HN2          4.3530     0.3460    -0.0150 hn         1 WCE       0.315000
@<TRIPOS>BOND
     1     1     2 1   
     2     1     3 ar  
     3     1     7 ar  
     4     3     4 ar  
     5     3    11 1   
     6     4     5 ar  
     7     4     8 1   
     8     5     6 ar  
     9     5    13 1   
    10     6     7 ar  
    11     6    14 1   
    12     7    12 1   
    13     8     9 1   
    14     8    10 2   
    15     9    15 1   
    16     9    16 1   
@<TRIPOS>SUBSTRUCTURE
     1 WCE         1 TEMP              0 ****  ****    0 ROOT
