@<TRIPOS>MOLECULE
WCF
   63    67     1     0     0
SMALL
No Charge or Current Charge


@<TRIPOS>ATOM
      1 C1         -23.1430     1.7200    26.4360 ca         1 WCF       0.044000
      2 C2         -21.9060     1.3840    27.0460 ca         1 WCF       0.217000
      3 C3         -21.8530     0.5030    28.1450 ca         1 WCF      -0.174000
      4 C11        -25.0960    -0.3420    31.2390 c5         1 WCF       0.164500
      5 C14        -24.5900     0.0930    33.5040 c5         1 WCF       0.150800
      6 C15        -24.9140     1.4420    32.7880 c5         1 WCF      -0.112400
      7 C16        -24.6190     1.1350    31.2960 c5         1 WCF      -0.095400
      8 C17        -25.6820     1.4990    26.3080 cp         1 WCF       0.023000
      9 C18        -26.3580     2.7440    26.4760 ca         1 WCF      -0.204600
     10 C19        -27.5710     2.9780    25.8090 ca         1 WCF       0.386900
     11 C21        -27.5370     0.8750    24.8330 ca         1 WCF       0.579300
     12 C22        -26.3080     0.5570    25.4590 ca         1 WCF       0.107000
     13 C24        -29.3820     0.1860    23.3570 c3         1 WCF       0.169600
     14 C25        -29.7720    -1.0560    22.5160 c3         1 WCF       0.159600
     15 C28        -25.7450     3.7900    27.3690 c          1 WCF       0.621700
     16 C29        -25.0610    -2.5270    29.9410 ca         1 WCF      -0.079300
     17 C30        -24.1060    -3.5680    29.8780 ca         1 WCF      -0.090000
     18 C4         -23.0540    -0.0290    28.6170 ca         1 WCF       0.166100
     19 C5         -24.2400     0.2930    28.0240 ca         1 WCF      -0.145300
     20 C6         -24.3610     1.1710    26.9260 cp         1 WCF       0.045000
     21 O7         -23.1760    -0.8780    29.6800 os         1 WCF      -0.301100
     22 C8         -24.6360    -1.0420    29.8760 c5         1 WCF       0.235300
     23 C9         -25.4190    -0.3620    28.6640 c5         1 WCF      -0.047100
     24 Cl10       -23.1570     2.8220    25.0530 cl         1 WCF      -0.177000
     25 F12        -20.7520     1.9100    26.5750 f          1 WCF      -0.160000
     26 N13        -24.3930    -0.9040    32.4200 n7         1 WCF      -0.845400
     27 N20        -28.1570     2.0670    25.0050 nb         1 WCF      -0.750000
     28 O23        -28.1170    -0.0660    24.0090 os         1 WCF      -0.432300
     29 O26        -30.0400    -2.1970    23.3530 oh         1 WCF      -0.648000
     30 F27        -25.7200    -0.6450    25.2300 f          1 WCF      -0.143000
     31 C31        -24.5020    -4.9160    29.9360 ca         1 WCF      -0.113500
     32 C32        -25.8600    -5.2470    30.0580 ca         1 WCF      -0.106000
     33 C33        -26.8220    -4.2280    30.1230 ca         1 WCF      -0.113500
     34 C34        -26.4260    -2.8800    30.0650 ca         1 WCF      -0.090000
     35 O35        -25.0500     3.5240    28.3380 o          1 WCF      -0.590100
     36 N36        -26.0520     5.0960    27.0590 ns         1 WCF      -0.499900
     37 C37        -25.5730     6.2550    27.8170 c3         1 WCF       0.093300
     38 H1         -20.9070     0.2500    28.6150 ha         1 WCF       0.152000
     39 H2         -26.1860    -0.4010    31.3720 h1         1 WCF       0.043700
     40 H3         -25.4220    -0.2000    34.1610 h1         1 WCF       0.052700
     41 H4         -23.6870     0.1670    34.1280 h1         1 WCF       0.052700
     42 H5         -24.3110     2.2730    33.1710 hc         1 WCF       0.047200
     43 H6         -25.9670     1.7130    32.9330 hc         1 WCF       0.047200
     44 H7         -23.5500     1.2480    31.0800 hc         1 WCF       0.062200
     45 H8         -25.1690     1.7970    30.6180 hc         1 WCF       0.062200
     46 H9         -28.1110     3.9160    25.9290 h4         1 WCF       0.027100
     47 H10        -29.3060     1.0550    22.6900 h1         1 WCF       0.060200
     48 H11        -30.1730     0.3880    24.0920 h1         1 WCF       0.060200
     49 H12        -30.6630    -0.8100    21.9230 h1         1 WCF       0.031200
     50 H13        -28.9590    -1.2790    21.8110 h1         1 WCF       0.031200
     51 H14        -23.0460    -3.3420    29.7850 ha         1 WCF       0.117500
     52 H15        -26.1950     0.3450    28.9800 hc         1 WCF       0.077700
     53 H16        -25.8850    -1.0960    27.9970 hc         1 WCF       0.077700
     54 H17        -24.7850    -1.8170    32.6800 hn         1 WCF       0.408000
     55 H19        -30.2320    -2.9530    22.7550 ho         1 WCF       0.446000
     56 H20        -23.7540    -5.7040    29.8860 ha         1 WCF       0.111500
     57 H21        -26.1660    -6.2900    30.1030 ha         1 WCF       0.111000
     58 H22        -27.8750    -4.4810    30.2180 ha         1 WCF       0.111500
     59 H23        -27.1910    -2.1080    30.1150 ha         1 WCF       0.117500
     60 H24        -26.6120     5.2610    26.2320 hn         1 WCF       0.319500
     61 H25        -25.9560     7.1770    27.3610 h1         1 WCF       0.042367
     62 H26        -25.9270     6.1910    28.8540 h1         1 WCF       0.042367
     63 H27        -24.4750     6.2750    27.8070 h1         1 WCF       0.042367
@<TRIPOS>BOND
     1     1     2 ar  
     2     1    20 ar  
     3     1    24 1   
     4     2     3 ar  
     5     2    25 1   
     6     3    18 ar  
     7     3    38 1   
     8     4     7 1   
     9     4    22 1   
    10     4    26 1   
    11     4    39 1   
    12     5     6 1   
    13     5    26 1   
    14     5    40 1   
    15     5    41 1   
    16     6     7 1   
    17     6    42 1   
    18     6    43 1   
    19     7    44 1   
    20     7    45 1   
    21     8     9 ar  
    22     8    12 ar  
    23     8    20 1   
    24     9    10 ar  
    25     9    15 1   
    26    10    27 ar  
    27    10    46 1   
    28    11    12 ar  
    29    11    27 ar  
    30    11    28 1   
    31    12    30 1   
    32    13    14 1   
    33    13    28 1   
    34    13    47 1   
    35    13    48 1   
    36    14    29 1   
    37    14    49 1   
    38    14    50 1   
    39    15    35 2   
    40    15    36 1   
    41    16    17 ar  
    42    16    22 1   
    43    16    34 ar  
    44    17    31 ar  
    45    17    51 1   
    46    18    19 ar  
    47    18    21 1   
    48    19    20 ar  
    49    19    23 1   
    50    21    22 1   
    51    22    23 1   
    52    23    52 1   
    53    23    53 1   
    54    26    54 1   
    55    29    55 1   
    56    31    32 ar  
    57    31    56 1   
    58    32    33 ar  
    59    32    57 1   
    60    33    34 ar  
    61    33    58 1   
    62    34    59 1   
    63    36    37 1   
    64    36    60 1   
    65    37    61 1   
    66    37    62 1   
    67    37    63 1   
@<TRIPOS>SUBSTRUCTURE
     1 WCF         1 TEMP              0 ****  ****    0 ROOT
