@<TRIPOS>MOLECULE
WCF
   63    67     1     0     0
SMALL
abcg2


@<TRIPOS>ATOM
      1 C1         -23.2800     1.7120    26.5680 ca         1 WCF       0.044000
      2 C2         -22.1190     1.3720    27.2440 ca         1 WCF       0.217000
      3 C3         -22.1150     0.5450    28.3530 ca         1 WCF      -0.174000
      4 C11        -25.3840    -0.4520    31.3440 c5         1 WCF       0.164500
      5 C14        -23.9570     0.0030    33.1780 c5         1 WCF       0.150800
      6 C15        -24.7960     1.2540    32.9440 c5         1 WCF      -0.112400
      7 C16        -25.2120     1.0770    31.4870 c5         1 WCF      -0.095400
      8 C17        -25.7670     1.5420    26.3050 cp         1 WCF       0.023000
      9 C18        -26.3770     2.8060    26.3940 ca         1 WCF      -0.204600
     10 C19        -27.5510     3.0060    25.6980 ca         1 WCF       0.386900
     11 C21        -27.5750     0.8930    24.8510 ca         1 WCF       0.579300
     12 C22        -26.3740     0.6020    25.5170 ca         1 WCF       0.107000
     13 C24        -29.3290     0.1920    23.4310 c3         1 WCF       0.169600
     14 C25        -29.6640    -1.0090    22.5890 c3         1 WCF       0.159600
     15 C28        -25.8150     3.8570    27.2950 c          1 WCF       0.621700
     16 C29        -25.1340    -2.5110    29.9370 ca         1 WCF      -0.079300
     17 C30        -24.0730    -3.4100    29.9370 ca         1 WCF      -0.090000
     18 C4         -23.3440     0.0600    28.7620 ca         1 WCF       0.166100
     19 C5         -24.5190     0.3710    28.0980 ca         1 WCF      -0.145300
     20 C6         -24.5060     1.2040    26.9990 cp         1 WCF       0.045000
     21 O7         -23.5300    -0.7210    29.8320 os         1 WCF      -0.301100
     22 C8         -24.9370    -1.0110    29.9840 c5         1 WCF       0.235300
     23 C9         -25.6540    -0.2960    28.8020 c5         1 WCF      -0.047100
     24 CL10       -23.1860     2.7700    25.2110 cl         1 WCF      -0.177000
     25 F12        -20.9590     1.8660    26.8080 f          1 WCF      -0.160000
     26 N13        -24.6320    -1.0620    32.4410 n7         1 WCF      -0.845400
     27 N20        -28.1380     2.0710    24.9510 nb         1 WCF      -0.750000
     28 O23        -28.1050    -0.0730    24.1190 os         1 WCF      -0.432300
     29 O26        -29.9090    -2.1160    23.4210 oh         1 WCF      -0.648000
     30 F27        -25.8330    -0.6090    25.3680 f          1 WCF      -0.143000
     31 C31        -24.3080    -4.7800    29.9030 ca         1 WCF      -0.113500
     32 C32        -25.6040    -5.2730    29.8790 ca         1 WCF      -0.106000
     33 C33        -26.6700    -4.3820    29.8870 ca         1 WCF      -0.113500
     34 C34        -26.4340    -3.0160    29.9150 ca         1 WCF      -0.090000
     35 O35        -25.4500     3.5900    28.4310 o          1 WCF      -0.590100
     36 N36        -25.7690     5.0900    26.7760 ns         1 WCF      -0.499900
     37 C37        -25.2840     6.2240    27.5290 c3         1 WCF       0.093300
     38 H1         -21.1920     0.3070    28.8660 ha         1 WCF       0.152000
     39 H2         -26.4470    -0.6980    31.4370 h1         1 WCF       0.043700
     40 H3         -23.8550    -0.2650    34.2300 h1         1 WCF       0.052700
     41 H4         -22.9470     0.1520    32.7840 h1         1 WCF       0.052700
     42 H5         -24.2540     2.1840    33.1230 hc         1 WCF       0.047200
     43 H6         -25.6730     1.2450    33.5970 hc         1 WCF       0.047200
     44 H7         -24.4250     1.4640    30.8350 hc         1 WCF       0.062200
     45 H8         -26.1270     1.6120    31.2350 hc         1 WCF       0.062200
     46 H9         -28.0690     3.9570    25.7540 h4         1 WCF       0.027100
     47 H10        -29.2220     1.0650    22.7840 h1         1 WCF       0.060200
     48 H11        -30.1250     0.4020    24.1510 h1         1 WCF       0.060200
     49 H12        -30.5430    -0.7370    21.9910 h1         1 WCF       0.031200
     50 H13        -28.8470    -1.1980    21.8810 h1         1 WCF       0.031200
     51 H14        -23.0530    -3.0530    29.9560 ha         1 WCF       0.117500
     52 H15        -26.4010     0.4200    29.1500 hc         1 WCF       0.077700
     53 H16        -26.1720    -1.0060    28.1550 hc         1 WCF       0.077700
     54 H17        -25.2680    -1.5480    33.0570 hn         1 WCF       0.408000
     55 H19        -30.0820    -2.8790    22.8630 ho         1 WCF       0.446000
     56 H20        -23.4680    -5.4630    29.8970 ha         1 WCF       0.111500
     57 H21        -25.7830    -6.3400    29.8530 ha         1 WCF       0.111000
     58 H22        -27.6870    -4.7500    29.8680 ha         1 WCF       0.111500
     59 H23        -27.2810    -2.3390    29.9120 ha         1 WCF       0.117500
     60 H24        -25.9680     5.2200    25.7980 hn         1 WCF       0.319500
     61 H25        -25.3960     7.1140    26.9180 h1         1 WCF       0.042367
     62 H26        -25.8550     6.3630    28.4470 h1         1 WCF       0.042367
     63 H27        -24.2310     6.1150    27.7930 h1         1 WCF       0.042367
@<TRIPOS>BOND
     1     1     2 ar  
     2     1    20 ar  
     3     1    24 1   
     4     2     3 ar  
     5     2    25 1   
     6     3    18 ar  
     7     3    38 1   
     8     4     7 1   
     9     4    22 1   
    10     4    26 1   
    11     4    39 1   
    12     5     6 1   
    13     5    26 1   
    14     5    40 1   
    15     5    41 1   
    16     6     7 1   
    17     6    42 1   
    18     6    43 1   
    19     7    44 1   
    20     7    45 1   
    21     8     9 ar  
    22     8    12 ar  
    23     8    20 1   
    24     9    10 ar  
    25     9    15 1   
    26    10    27 ar  
    27    10    46 1   
    28    11    12 ar  
    29    11    27 ar  
    30    11    28 1   
    31    12    30 1   
    32    13    14 1   
    33    13    28 1   
    34    13    47 1   
    35    13    48 1   
    36    14    29 1   
    37    14    49 1   
    38    14    50 1   
    39    15    35 2   
    40    15    36 1   
    41    16    17 ar  
    42    16    22 1   
    43    16    34 ar  
    44    17    31 ar  
    45    17    51 1   
    46    18    19 ar  
    47    18    21 1   
    48    19    20 ar  
    49    19    23 1   
    50    21    22 1   
    51    22    23 1   
    52    23    52 1   
    53    23    53 1   
    54    26    54 1   
    55    29    55 1   
    56    31    32 ar  
    57    31    56 1   
    58    32    33 ar  
    59    32    57 1   
    60    33    34 ar  
    61    33    58 1   
    62    34    59 1   
    63    36    37 1   
    64    36    60 1   
    65    37    61 1   
    66    37    62 1   
    67    37    63 1   
@<TRIPOS>SUBSTRUCTURE
     1 WCF         1 TEMP              0 ****  ****    0 ROOT
