@<TRIPOS>MOLECULE
WCH
   50    53     1     0     0
SMALL
No Charge or Current Charge


@<TRIPOS>ATOM
      1 C15        -26.7220    27.9150    44.7610 c5         1 WCH       0.152300
      2 C17        -24.6320    28.0930    43.3020 c          1 WCH       0.601100
      3 C22        -18.6410    24.5460    45.4780 ca         1 WCH       0.059400
      4 C24        -16.3890    23.6090    45.5200 ca         1 WCH      -0.125500
      5 C26        -18.2740    22.2130    44.8700 ca         1 WCH      -0.125500
      6 C28        -24.7100    29.6850    41.3600 c3         1 WCH       0.103000
      7 C02        -23.0210    27.7090    46.9460 ca         1 WCH       0.109500
      8 C03        -22.5600    28.9250    47.3720 ca         1 WCH      -0.086600
      9 C05        -24.6840    29.1820    47.1420 cc         1 WCH       0.426700
     10 C07        -20.8810    26.8610    47.0080 ca         1 WCH       0.341000
     11 C09        -21.1790    29.0590    47.6130 ca         1 WCH       0.457900
     12 C12        -25.3160    26.8130    46.3590 c5         1 WCH       0.286300
     13 C14        -25.5960    27.1040    44.0320 c5         1 WCH       0.078300
     14 C16        -26.8210    27.2020    46.1450 c5         1 WCH       0.094300
     15 C23        -17.2600    24.6980    45.7070 ca         1 WCH      -0.063500
     16 C25        -16.8960    22.3660    45.1020 ca         1 WCH      -0.084000
     17 C27        -19.1450    23.3010    45.0570 ca         1 WCH      -0.063500
     18 C29        -25.7700    30.3330    40.4560 c3         1 WCH      -0.112100
     19 N01        -24.3720    27.8590    46.7890 na         1 WCH      -0.306300
     20 N04        -23.5820    29.8670    47.5020 nd         1 WCH      -0.559100
     21 N06        -22.2010    26.6570    46.7630 nb         1 WCH      -0.197000
     22 N08        -20.3380    28.0320    47.4290 nb         1 WCH      -0.287000
     23 N11        -20.0080    25.7720    46.8210 ne         1 WCH      -0.278000
     24 N20        -25.3070    28.7040    42.2650 ns         1 WCH      -0.493900
     25 N21        -19.5160    25.6430    45.6590 nf         1 WCH      -0.135400
     26 O13        -24.9200    26.3210    45.0610 os         1 WCH      -0.416000
     27 O18        -27.9840    27.8300    44.1010 oh         1 WCH      -0.689000
     28 O19        -27.7070    26.0590    46.0560 oh         1 WCH      -0.694000
     29 O30        -23.4490    28.3080    43.5380 o          1 WCH      -0.604100
     30 H1         -26.4270    28.9670    44.8870 h1         1 WCH       0.062700
     31 H2         -15.3230    23.7290    45.6980 ha         1 WCH       0.117000
     32 H3         -18.6670    21.2510    44.5460 ha         1 WCH       0.117000
     33 H4         -23.9540    29.1840    40.7410 h1         1 WCH       0.053700
     34 H5         -24.2120    30.4630    41.9530 h1         1 WCH       0.053700
     35 H6         -25.6930    29.5760    47.1220 h5         1 WCH       0.104800
     36 H7         -25.2230    26.0160    47.1080 h2         1 WCH       0.110700
     37 H8         -26.0070    26.4130    43.2850 h1         1 WCH       0.088700
     38 H9         -27.1740    27.8910    46.9260 h1         1 WCH       0.074700
     39 H10        -16.8660    25.6590    46.0290 ha         1 WCH       0.134000
     40 H11        -16.2220    21.5240    44.9570 ha         1 WCH       0.114000
     41 H12        -20.2110    23.1810    44.8770 ha         1 WCH       0.134000
     42 H13        -25.3030    31.0650    39.7880 hc         1 WCH       0.044033
     43 H14        -26.2700    29.5760    39.8400 hc         1 WCH       0.044033
     44 H15        -26.5280    30.8500    41.0560 hc         1 WCH       0.044033
     45 H16        -19.6190    30.3500    47.9100 hn         1 WCH       0.509500
     46 H17        -21.1960    31.0620    47.9750 hn         1 WCH       0.509500
     47 H18        -26.2880    28.4710    42.1520 hn         1 WCH       0.323500
     48 H19        -28.4070    27.0550    44.5530 ho         1 WCH       0.519000
     49 H20        -27.7440    25.6310    46.9460 ho         1 WCH       0.519000
     50 N10        -20.6200    30.2250    48.0380 nv         1 WCH      -1.064900
@<TRIPOS>BOND
     1     1    13 1   
     2     1    14 1   
     3     1    27 1   
     4     1    30 1   
     5     2    13 1   
     6     2    24 1   
     7     2    29 2   
     8     3    15 ar  
     9     3    17 ar  
    10     3    25 1   
    11     4    15 ar  
    12     4    16 ar  
    13     4    31 1   
    14     5    16 ar  
    15     5    17 ar  
    16     5    32 1   
    17     6    18 1   
    18     6    24 1   
    19     6    33 1   
    20     6    34 1   
    21     7     8 ar  
    22     7    19 1   
    23     7    21 ar  
    24     8    11 ar  
    25     8    20 1   
    26     9    19 1   
    27     9    20 2   
    28     9    35 1   
    29    10    21 ar  
    30    10    22 ar  
    31    10    23 1   
    32    11    22 ar  
    33    11    50 1   
    34    12    14 1   
    35    12    19 1   
    36    12    26 1   
    37    12    36 1   
    38    13    26 1   
    39    13    37 1   
    40    14    28 1   
    41    14    38 1   
    42    15    39 1   
    43    16    40 1   
    44    17    41 1   
    45    18    42 1   
    46    18    43 1   
    47    18    44 1   
    48    23    25 2   
    49    24    47 1   
    50    27    48 1   
    51    28    49 1   
    52    45    50 1   
    53    46    50 1   
@<TRIPOS>SUBSTRUCTURE
     1 WCH         1 TEMP              0 ****  ****    0 ROOT
