@<TRIPOS>MOLECULE
WCH
   50    53     1     0     0
SMALL
abcg2


@<TRIPOS>ATOM
      1 C15        -25.8910    27.6770    44.2220 c5         1 WCH       0.152300
      2 C17        -26.1290    29.7090    42.7310 c          1 WCH       0.601100
      3 C22        -18.3170    23.8100    47.3400 ca         1 WCH       0.059400
      4 C24        -16.5490    22.4470    48.2470 ca         1 WCH      -0.125500
      5 C26        -18.2030    21.4760    46.7880 ca         1 WCH      -0.125500
      6 C28        -28.0520    30.9930    41.9130 c3         1 WCH       0.103000
      7 C02        -21.8870    27.8520    45.5910 ca         1 WCH       0.109500
      8 C03        -21.5130    28.9350    46.3720 ca         1 WCH      -0.086600
      9 C05        -23.0470    29.6370    45.1010 cc         1 WCH       0.426700
     10 C07        -20.4210    26.5290    46.5470 ca         1 WCH       0.341000
     11 C09        -20.4900    28.6940    47.3120 ca         1 WCH       0.457900
     12 C12        -23.5760    27.5200    43.7800 c5         1 WCH       0.286300
     13 C14        -25.5550    28.3060    42.8650 c5         1 WCH       0.078300
     14 C16        -24.7250    26.6980    44.3880 c5         1 WCH       0.094300
     15 C23        -17.1770    23.6780    48.1280 ca         1 WCH      -0.063500
     16 C25        -17.0620    21.3450    47.5780 ca         1 WCH      -0.084000
     17 C27        -18.8330    22.7000    46.6660 ca         1 WCH      -0.063500
     18 C29        -29.4960    30.6860    41.5640 c3         1 WCH      -0.112100
     19 N01        -22.8750    28.3200    44.7770 na         1 WCH      -0.306300
     20 N04        -22.2480    30.0400    46.0510 nd         1 WCH      -0.559100
     21 N06        -21.3800    26.6250    45.6410 nb         1 WCH      -0.197000
     22 N08        -19.9670    27.4690    47.3670 nb         1 WCH      -0.287000
     23 N11        -19.8750    25.2260    46.5910 ne         1 WCH      -0.278000
     24 N20        -27.2940    29.7670    42.0820 ns         1 WCH      -0.493900
     25 N21        -18.8640    25.1040    47.2940 nf         1 WCH      -0.135400
     26 O13        -24.1440    28.3640    42.8230 os         1 WCH      -0.416000
     27 O18        -27.1650    27.1220    44.1890 oh         1 WCH      -0.689000
     28 O19        -24.9900    25.5630    43.6160 oh         1 WCH      -0.694000
     29 O30        -25.5790    30.6800    43.2320 o          1 WCH      -0.604100
     30 H1         -25.8000    28.4420    45.0060 h1         1 WCH       0.062700
     31 H2         -15.6630    22.3490    48.8600 ha         1 WCH       0.117000
     32 H3         -18.5990    20.6140    46.2670 ha         1 WCH       0.117000
     33 H4         -27.5990    31.6100    41.1320 h1         1 WCH       0.053700
     34 H5         -28.0040    31.5660    42.8390 h1         1 WCH       0.053700
     35 H6         -23.7770    30.2530    44.5980 h5         1 WCH       0.104800
     36 H7         -22.8260    26.8720    43.3180 h2         1 WCH       0.110700
     37 H8         -25.9290    27.6610    42.0610 h1         1 WCH       0.088700
     38 H9         -24.5290    26.4500    45.4370 h1         1 WCH       0.074700
     39 H10        -16.7920    24.5490    48.6420 ha         1 WCH       0.134000
     40 H11        -16.5760    20.3830    47.6670 ha         1 WCH       0.114000
     41 H12        -19.7170    22.8000    46.0510 ha         1 WCH       0.134000
     42 H13        -30.0500    31.6140    41.4290 hc         1 WCH       0.044033
     43 H14        -29.5700    30.1180    40.6360 hc         1 WCH       0.044033
     44 H15        -29.9810    30.1150    42.3550 hc         1 WCH       0.044033
     45 H16        -19.3070    29.4300    48.7960 hn         1 WCH       0.509500
     46 H17        -20.4150    30.5690    48.1180 hn         1 WCH       0.509500
     47 H18        -27.6400    28.9350    41.6280 hn         1 WCH       0.323500
     48 H19        -27.4480    26.9330    45.0890 ho         1 WCH       0.519000
     49 H20        -24.2710    24.9340    43.7380 ho         1 WCH       0.519000
     50 N10        -20.0370    29.6370    48.1370 nv         1 WCH      -1.064900
@<TRIPOS>BOND
     1     1    13 1   
     2     1    14 1   
     3     1    27 1   
     4     1    30 1   
     5     2    13 1   
     6     2    24 1   
     7     2    29 2   
     8     3    15 ar  
     9     3    17 ar  
    10     3    25 1   
    11     4    15 ar  
    12     4    16 ar  
    13     4    31 1   
    14     5    16 ar  
    15     5    17 ar  
    16     5    32 1   
    17     6    18 1   
    18     6    24 1   
    19     6    33 1   
    20     6    34 1   
    21     7     8 ar  
    22     7    19 1   
    23     7    21 ar  
    24     8    11 ar  
    25     8    20 1   
    26     9    19 1   
    27     9    20 2   
    28     9    35 1   
    29    10    21 ar  
    30    10    22 ar  
    31    10    23 1   
    32    11    22 ar  
    33    11    50 1   
    34    12    14 1   
    35    12    19 1   
    36    12    26 1   
    37    12    36 1   
    38    13    26 1   
    39    13    37 1   
    40    14    28 1   
    41    14    38 1   
    42    15    39 1   
    43    16    40 1   
    44    17    41 1   
    45    18    42 1   
    46    18    43 1   
    47    18    44 1   
    48    23    25 2   
    49    24    47 1   
    50    27    48 1   
    51    28    49 1   
    52    45    50 1   
    53    46    50 1   
@<TRIPOS>SUBSTRUCTURE
     1 WCH         1 TEMP              0 ****  ****    0 ROOT
