@<TRIPOS>MOLECULE
WCI
   26    27     1     0     0
SMALL
No Charge or Current Charge


@<TRIPOS>ATOM
      1 N1          -6.4320    17.2780   -34.0980 na         1 WCI       0.116800
      2 C7          -2.0900    12.3120   -34.8640 ca         1 WCI      -0.068000
      3 C8          -0.8920    12.7480   -34.2750 ca         1 WCI       0.095000
      4 N2          -4.0260    15.5490   -34.9160 ns         1 WCI      -0.149000
      5 C9          -0.7490    14.1020   -33.9100 ca         1 WCI       0.153000
      6 C1          -6.2500    18.3250   -32.2730 cc         1 WCI       0.254900
      7 C5          -3.0080    14.5750   -34.7210 ca         1 WCI      -0.009000
      8 C6          -3.1440    13.2170   -35.0880 ca         1 WCI      -0.124000
      9 C4          -5.3330    15.4590   -35.3790 c          1 WCI       0.588100
     10 C3          -6.0670    16.7960   -35.4360 c3         1 WCI       0.009600
     11 C2          -7.5950    16.9570   -33.3880 cd         1 WCI      -0.147000
     12 Cl           0.7390    14.6930   -33.1700 cl         1 WCI      -0.177000
     13 C10         -1.8020    15.0040   -34.1350 ca         1 WCI      -0.158000
     14 O           -5.8770    14.4120   -35.7140 o          1 WCI      -0.547100
     15 N           -5.5910    18.1340   -33.3980 nd         1 WCI      -0.520800
     16 C           -7.4670    17.6360   -32.2150 cc         1 WCI      -0.223000
     17 H1          -2.2010    11.2680   -35.1490 ha         1 WCI       0.137000
     18 H2          -3.7460    16.4880   -34.6580 hn         1 WCI       0.153000
     19 H3          -5.8210    18.9680   -31.5150 h4         1 WCI       0.039100
     20 H4          -4.0510    12.8410   -35.5500 ha         1 WCI       0.159000
     21 H5          -5.4200    17.5320   -35.9270 h1         1 WCI       0.081700
     22 H6          -6.9750    16.6720   -36.0360 h1         1 WCI       0.081700
     23 H7          -8.3730    16.3030   -33.7660 h4         1 WCI       0.152000
     24 H8          -1.6780    16.0460   -33.8470 ha         1 WCI       0.128000
     25 H9          -8.1610    17.6550   -31.3810 ha         1 WCI       0.147000
     26 Cl1          0.4090    11.5860   -34.0090 cl         1 WCI      -0.175000
@<TRIPOS>BOND
     1     1    10 1   
     2     1    11 1   
     3     1    15 1   
     4     2     3 ar  
     5     2     8 ar  
     6     2    17 1   
     7     3     5 ar  
     8     3    26 1   
     9     4     7 1   
    10     4     9 1   
    11     4    18 1   
    12     5    12 1   
    13     5    13 ar  
    14     6    15 2   
    15     6    16 1   
    16     6    19 1   
    17     7     8 ar  
    18     7    13 ar  
    19     8    20 1   
    20     9    10 1   
    21     9    14 2   
    22    10    21 1   
    23    10    22 1   
    24    11    16 2   
    25    11    23 1   
    26    13    24 1   
    27    16    25 1   
@<TRIPOS>SUBSTRUCTURE
     1 WCI         1 TEMP              0 ****  ****    0 ROOT
