@<TRIPOS>MOLECULE
WCI
   26    27     1     0     0
SMALL
abcg2


@<TRIPOS>ATOM
      1 N1          -6.5570    17.4370   -33.7160 na         1 WCI       0.116800
      2 C7          -2.0760    12.3190   -34.2290 ca         1 WCI      -0.068000
      3 C8          -0.8230    12.4810   -34.8050 ca         1 WCI       0.095000
      4 N2          -3.4770    15.7310   -34.6870 ns         1 WCI      -0.149000
      5 C9          -0.4740    13.7260   -35.3280 ca         1 WCI       0.153000
      6 C1          -7.7250    17.8550   -31.9890 cc         1 WCI       0.254900
      7 C5          -2.6300    14.6130   -34.6970 ca         1 WCI      -0.009000
      8 C6          -2.9800    13.3680   -34.1680 ca         1 WCI      -0.124000
      9 C4          -4.7470    15.8370   -34.2120 c          1 WCI       0.588100
     10 C3          -5.3640    17.2150   -34.4840 c3         1 WCI       0.009600
     11 C2          -7.8370    17.2090   -34.0940 cd         1 WCI      -0.147000
     12 CL           1.0830    13.9920   -36.0560 cl         1 WCI      -0.177000
     13 C10         -1.3700    14.7810   -35.2760 ca         1 WCI      -0.158000
     14 O           -5.3630    14.9460   -33.6520 o          1 WCI      -0.547100
     15 N           -6.4680    17.8250   -32.4250 nd         1 WCI      -0.520800
     16 C           -8.6310    17.4770   -32.9980 cc         1 WCI      -0.223000
     17 H1          -2.3470    11.3540   -33.8220 ha         1 WCI       0.137000
     18 H2          -3.0890    16.5650   -35.1070 hn         1 WCI       0.153000
     19 H3          -7.9350    18.1530   -30.9730 h4         1 WCI       0.039100
     20 H4          -3.9450    13.2220   -33.7150 ha         1 WCI       0.159000
     21 H5          -4.6450    18.0030   -34.2610 h1         1 WCI       0.081700
     22 H6          -5.6130    17.2750   -35.5450 h1         1 WCI       0.081700
     23 H7          -8.0750    16.8870   -35.0940 h4         1 WCI       0.152000
     24 H8          -1.0840    15.7390   -35.6880 ha         1 WCI       0.128000
     25 H9          -9.7040    17.4140   -32.9400 ha         1 WCI       0.147000
     26 CL1          0.2730    11.1320   -34.8580 cl         1 WCI      -0.175000
@<TRIPOS>BOND
     1     1    10 1   
     2     1    11 1   
     3     1    15 1   
     4     2     3 ar  
     5     2     8 ar  
     6     2    17 1   
     7     3     5 ar  
     8     3    26 1   
     9     4     7 1   
    10     4     9 1   
    11     4    18 1   
    12     5    12 1   
    13     5    13 ar  
    14     6    15 2   
    15     6    16 1   
    16     6    19 1   
    17     7     8 ar  
    18     7    13 ar  
    19     8    20 1   
    20     9    10 1   
    21     9    14 2   
    22    10    21 1   
    23    10    22 1   
    24    11    16 2   
    25    11    23 1   
    26    13    24 1   
    27    16    25 1   
@<TRIPOS>SUBSTRUCTURE
     1 WCI         1 TEMP              0 ****  ****    0 ROOT
