@<TRIPOS>MOLECULE
WCJ
   64    68     1     0     0
SMALL
abcg2


@<TRIPOS>ATOM
      1 C10        -27.1840    26.3570    27.4880 cc         1 WCJ      -0.054400
      2 C13        -27.6980    23.0030    25.8850 ca         1 WCJ       0.174000
      3 C15        -29.0790    22.8560    25.9320 ca         1 WCJ       0.073100
      4 C17        -29.5650    20.5420    25.9920 ca         1 WCJ       0.349300
      5 C21        -29.3970    18.1500    27.1010 ca         1 WCJ      -0.254000
      6 C22        -28.9170    19.2810    27.7350 ca         1 WCJ       0.143900
      7 C24        -29.8410    23.8760    26.4710 ca         1 WCJ      -0.083000
      8 C28        -26.5460    28.0670    28.8670 ca         1 WCJ       0.156500
      9 C01        -23.2420    24.5920    19.2510 c3         1 WCJ      -0.088100
     10 C02        -23.8170    26.0160    19.2220 c3         1 WCJ      -0.147700
     11 C05        -24.7560    26.6560    22.8580 ca         1 WCJ      -0.007000
     12 C06        -26.1310    26.6160    23.1070 ca         1 WCJ      -0.154500
     13 C07        -26.6030    26.8010    24.3980 ca         1 WCJ      -0.061500
     14 C08        -25.7390    27.0230    25.4740 ca         1 WCJ      -0.080800
     15 C09        -26.2650    27.1610    26.8340 cd         1 WCJ       0.013700
     16 C11        -27.8300    25.1540    26.9420 ca         1 WCJ       0.014200
     17 C12        -27.0670    24.1200    26.3860 ca         1 WCJ      -0.130000
     18 C19        -29.9830    18.3190    25.8460 ca         1 WCJ       0.159300
     19 C25        -29.2230    25.0190    26.9640 ca         1 WCJ      -0.134000
     20 C29        -27.3670    26.9250    28.7950 ca         1 WCJ      -0.245800
     21 C30        -28.0530    26.6010    29.9880 ca         1 WCJ       0.434900
     22 C33        -27.1740    28.5040    30.9560 ca         1 WCJ       0.179900
     23 C35        -24.3640    27.0650    25.2100 ca         1 WCJ      -0.061500
     24 C36        -23.8810    26.8880    23.9270 ca         1 WCJ      -0.154500
     25 C38        -22.7090    27.0690    19.1340 c3         1 WCJ      -0.088100
     26 F14        -26.9620    22.0050    25.3480 f          1 WCJ      -0.168000
     27 N04        -24.1810    26.4790    21.5910 ns         1 WCJ      -0.146000
     28 N18        -30.0630    19.5360    25.2910 nb         1 WCJ      -0.187000
     29 N23        -28.9980    20.4980    27.1870 nb         1 WCJ      -0.232000
     30 N26        -25.8840    28.2010    27.6800 na         1 WCJ      -0.183400
     31 N31        -28.7930    25.4850    30.1390 nv         1 WCJ      -1.079900
     32 N32        -27.9560    27.4230    31.0500 nb         1 WCJ      -0.303000
     33 N34        -26.4310    28.8850    29.9240 nb         1 WCJ      -0.237000
     34 O16        -29.6900    21.7480    25.3710 os         1 WCJ      -0.333400
     35 O37        -25.9880    26.0940    20.2510 o          1 WCJ      -0.580100
     36 H203       -29.9830    17.0650    24.1260 hc         1 WCJ       0.060367
     37 H201       -30.4730    16.2410    25.6200 hc         1 WCJ       0.060367
     38 H202       -31.5790    17.3680    24.8020 hc         1 WCJ       0.060367
     39 H211       -29.3230    17.1750    27.5600 ha         1 WCJ       0.137000
     40 H221       -28.4540    19.2220    28.7140 h4         1 WCJ       0.027100
     41 H241       -30.9180    23.7700    26.4950 ha         1 WCJ       0.133000
     42 H011       -24.0380    23.8460    19.2830 hc         1 WCJ       0.042533
     43 H013       -22.6440    24.4170    18.3560 hc         1 WCJ       0.042533
     44 H012       -22.5990    24.4480    20.1220 hc         1 WCJ       0.042533
     45 H021       -24.4550    26.1100    18.3410 hc         1 WCJ       0.084700
     46 H061       -26.8180    26.4470    22.2950 ha         1 WCJ       0.133500
     47 H071       -27.6700    26.7730    24.5730 ha         1 WCJ       0.121500
     48 H121       -25.9880    24.1810    26.3460 ha         1 WCJ       0.142000
     49 H251       -29.8300    25.8220    27.3610 ha         1 WCJ       0.128000
     50 H273       -25.3170    30.1710    27.9700 h1         1 WCJ       0.057700
     51 H271       -23.9750    29.0930    27.5470 h1         1 WCJ       0.057700
     52 H272       -25.1420    29.5840    26.3040 h1         1 WCJ       0.057700
     53 H331       -27.1380    29.1380    31.8370 h5         1 WCJ       0.045100
     54 H351       -23.6620    27.2170    26.0190 ha         1 WCJ       0.121500
     55 H361       -22.8130    26.9170    23.7450 ha         1 WCJ       0.133500
     56 H381       -23.1140    28.0820    19.1700 hc         1 WCJ       0.042533
     57 H382       -21.9750    26.9630    19.9370 hc         1 WCJ       0.042533
     58 H1         -22.1720    26.9500    18.1920 hc         1 WCJ       0.042533
     59 H041       -23.1740    26.5430    21.5790 hn         1 WCJ       0.151000
     60 H312       -29.2940    25.3420    30.9990 hn         1 WCJ       0.503500
     61 H311       -28.9470    24.8490    29.3760 hn         1 WCJ       0.503500
     62 C27        -25.0230    29.3260    27.3530 c3         1 WCJ       0.066900
     63 C20        -30.5370    17.1730    25.0610 c3         1 WCJ      -0.151400
     64 C03        -24.7740    26.2100    20.3930 c          1 WCJ       0.605100
@<TRIPOS>BOND
     1     1    15 2   
     2     1    16 1   
     3     1    20 1   
     4     2     3 ar  
     5     2    17 ar  
     6     2    26 1   
     7     3     7 ar  
     8     3    34 1   
     9     4    28 ar  
    10     4    29 ar  
    11     4    34 1   
    12     5     6 ar  
    13     5    18 ar  
    14     5    39 1   
    15     6    29 ar  
    16     6    40 1   
    17     7    19 ar  
    18     7    41 1   
    19     8    20 ar  
    20     8    30 1   
    21     8    33 ar  
    22     9    10 1   
    23     9    42 1   
    24     9    43 1   
    25     9    44 1   
    26    10    25 1   
    27    10    45 1   
    28    10    64 1   
    29    11    12 ar  
    30    11    24 ar  
    31    11    27 1   
    32    12    13 ar  
    33    12    46 1   
    34    13    14 ar  
    35    13    47 1   
    36    14    15 1   
    37    14    23 ar  
    38    15    30 1   
    39    16    17 ar  
    40    16    19 ar  
    41    17    48 1   
    42    18    28 ar  
    43    18    63 1   
    44    19    49 1   
    45    20    21 ar  
    46    21    31 1   
    47    21    32 ar  
    48    22    32 ar  
    49    22    33 ar  
    50    22    53 1   
    51    23    24 ar  
    52    23    54 1   
    53    24    55 1   
    54    25    56 1   
    55    25    57 1   
    56    25    58 1   
    57    27    59 1   
    58    27    64 1   
    59    30    62 1   
    60    31    60 1   
    61    31    61 1   
    62    35    64 2   
    63    36    63 1   
    64    37    63 1   
    65    38    63 1   
    66    50    62 1   
    67    51    62 1   
    68    52    62 1   
@<TRIPOS>SUBSTRUCTURE
     1 WCJ         1 TEMP              0 ****  ****    0 ROOT
