@<TRIPOS>MOLECULE
WCJ
   64    68     1     0     0
SMALL
No Charge or Current Charge


@<TRIPOS>ATOM
      1 C10        -27.1360    26.3980    27.5680 cc         1 WCJ      -0.054400
      2 C13        -27.7510    22.9490    26.1630 ca         1 WCJ       0.174000
      3 C15        -29.1530    22.9650    25.9870 ca         1 WCJ       0.073100
      4 C17        -29.7930    20.6310    26.0500 ca         1 WCJ       0.349300
      5 C21        -29.7770    18.1670    27.1540 ca         1 WCJ      -0.254000
      6 C22        -29.5080    19.3100    27.9210 ca         1 WCJ       0.143900
      7 C24        -29.8810    24.1190    26.3210 ca         1 WCJ      -0.083000
      8 C28        -26.3430    27.9910    28.9710 ca         1 WCJ       0.156500
      9 C01        -22.4250    25.0980    19.4220 c3         1 WCJ      -0.088100
     10 C02        -23.7780    25.8010    19.1370 c3         1 WCJ      -0.147700
     11 C05        -24.7130    26.4630    22.8320 ca         1 WCJ      -0.007000
     12 C06        -26.0500    26.1870    23.1810 ca         1 WCJ      -0.154500
     13 C07        -26.4970    26.3740    24.5010 ca         1 WCJ      -0.061500
     14 C08        -25.6260    26.8450    25.5080 ca         1 WCJ      -0.080800
     15 C09        -26.0840    27.0400    26.9100 cd         1 WCJ       0.013700
     16 C11        -27.8230    25.2250    27.0340 ca         1 WCJ       0.014200
     17 C12        -27.0930    24.0720    26.6880 ca         1 WCJ      -0.130000
     18 C19        -30.0580    18.3530    25.7920 ca         1 WCJ       0.159300
     19 C25        -29.2180    25.2430    26.8460 ca         1 WCJ      -0.134000
     20 C29        -27.2670    26.9830    28.8720 ca         1 WCJ      -0.245800
     21 C30        -28.0840    26.6840    29.9690 ca         1 WCJ       0.434900
     22 C33        -27.0570    28.3680    31.1200 ca         1 WCJ       0.179900
     23 C35        -24.2910    27.1270    25.1470 ca         1 WCJ      -0.061500
     24 C36        -23.8430    26.9380    23.8280 ca         1 WCJ      -0.154500
     25 C38        -23.5780    27.2440    18.6120 c3         1 WCJ      -0.088100
     26 F14        -27.0230    21.8610    25.8160 f          1 WCJ      -0.168000
     27 N04        -24.1890    26.3000    21.5210 ns         1 WCJ      -0.146000
     28 N18        -30.0710    19.5840    25.2430 nb         1 WCJ      -0.187000
     29 N23        -29.5190    20.5400    27.3740 nb         1 WCJ      -0.232000
     30 N26        -25.6320    28.0780    27.7760 na         1 WCJ      -0.183400
     31 N31        -28.9950    25.6820    29.9740 nv         1 WCJ      -1.079900
     32 N32        -27.9830    27.3820    31.1080 nb         1 WCJ      -0.303000
     33 N34        -26.2240    28.7090    30.1080 nb         1 WCJ      -0.237000
     34 O16        -29.8270    21.8800    25.4660 os         1 WCJ      -0.333400
     35 O37        -25.8480    25.2800    20.2730 o          1 WCJ      -0.580100
     36 H203       -29.9280    17.3250    23.8840 hc         1 WCJ       0.060367
     37 H201       -29.9790    16.2440    25.2830 hc         1 WCJ       0.060367
     38 H202       -31.4540    17.0680    24.7500 hc         1 WCJ       0.060367
     39 H211       -29.7690    17.1780    27.6030 ha         1 WCJ       0.137000
     40 H221       -29.2850    19.2430    28.9850 h4         1 WCJ       0.027100
     41 H241       -30.9590    24.1400    26.1750 ha         1 WCJ       0.133000
     42 H011       -22.5900    24.0770    19.7860 hc         1 WCJ       0.042533
     43 H013       -21.8230    25.0370    18.5070 hc         1 WCJ       0.042533
     44 H012       -21.8410    25.6420    20.1750 hc         1 WCJ       0.042533
     45 H021       -24.2800    25.2380    18.3400 hc         1 WCJ       0.084700
     46 H061       -26.7660    25.8390    22.4440 ha         1 WCJ       0.133500
     47 H071       -27.5440    26.1870    24.7160 ha         1 WCJ       0.121500
     48 H121       -26.0150    24.0500    26.8200 ha         1 WCJ       0.142000
     49 H251       -29.7870    26.1360    27.0990 ha         1 WCJ       0.128000
     50 H273       -25.0850    30.1060    28.0600 h1         1 WCJ       0.057700
     51 H271       -23.7310    29.0000    27.6940 h1         1 WCJ       0.057700
     52 H272       -24.8700    29.4970    26.4020 h1         1 WCJ       0.057700
     53 H331       -26.9670    28.9430    32.0410 h5         1 WCJ       0.045100
     54 H351       -23.5760    27.4570    25.8940 ha         1 WCJ       0.121500
     55 H361       -22.8050    27.1550    23.5850 ha         1 WCJ       0.133500
     56 H381       -24.5440    27.7080    18.3780 hc         1 WCJ       0.042533
     57 H382       -23.0690    27.8690    19.3550 hc         1 WCJ       0.042533
     58 H1         -22.9740    27.2430    17.6960 hc         1 WCJ       0.042533
     59 H041       -23.2420    26.6390    21.4160 hn         1 WCJ       0.151000
     60 H312       -29.3580    25.3680    30.8690 hn         1 WCJ       0.503500
     61 H311       -28.9570    24.9990    29.2240 hn         1 WCJ       0.503500
     62 C27        -24.7770    29.2390    27.4640 c3         1 WCJ       0.066900
     63 C20        -30.3710    17.1840    24.8770 c3         1 WCJ      -0.151400
     64 C03        -24.7290    25.7720    20.3540 c          1 WCJ       0.605100
@<TRIPOS>BOND
     1     1    15 2   
     2     1    16 1   
     3     1    20 1   
     4     2     3 ar  
     5     2    17 ar  
     6     2    26 1   
     7     3     7 ar  
     8     3    34 1   
     9     4    28 ar  
    10     4    29 ar  
    11     4    34 1   
    12     5     6 ar  
    13     5    18 ar  
    14     5    39 1   
    15     6    29 ar  
    16     6    40 1   
    17     7    19 ar  
    18     7    41 1   
    19     8    20 ar  
    20     8    30 1   
    21     8    33 ar  
    22     9    10 1   
    23     9    42 1   
    24     9    43 1   
    25     9    44 1   
    26    10    25 1   
    27    10    45 1   
    28    10    64 1   
    29    11    12 ar  
    30    11    24 ar  
    31    11    27 1   
    32    12    13 ar  
    33    12    46 1   
    34    13    14 ar  
    35    13    47 1   
    36    14    15 1   
    37    14    23 ar  
    38    15    30 1   
    39    16    17 ar  
    40    16    19 ar  
    41    17    48 1   
    42    18    28 ar  
    43    18    63 1   
    44    19    49 1   
    45    20    21 ar  
    46    21    31 1   
    47    21    32 ar  
    48    22    32 ar  
    49    22    33 ar  
    50    22    53 1   
    51    23    24 ar  
    52    23    54 1   
    53    24    55 1   
    54    25    56 1   
    55    25    57 1   
    56    25    58 1   
    57    27    59 1   
    58    27    64 1   
    59    30    62 1   
    60    31    60 1   
    61    31    61 1   
    62    35    64 2   
    63    36    63 1   
    64    37    63 1   
    65    38    63 1   
    66    50    62 1   
    67    51    62 1   
    68    52    62 1   
@<TRIPOS>SUBSTRUCTURE
     1 WCJ         1 TEMP              0 ****  ****    0 ROOT
