@<TRIPOS>MOLECULE
WCK
   46    49     1     0     0
SMALL
No Charge or Current Charge


@<TRIPOS>ATOM
      1 C14        -38.5040    24.6470   -26.3210 c6         1 WCK       0.198300
      2 C15        -38.4180    25.9370   -27.1940 c6         1 WCK       0.145100
      3 O          -37.3510    26.8400   -26.7820 os         1 WCK      -0.453000
      4 C16        -36.2040    26.2090   -26.1410 c6         1 WCK       0.145100
      5 C17        -35.9830    24.7310   -26.5900 c6         1 WCK       0.198300
      6 N5         -37.2040    23.8930   -26.3310 nh         1 WCK      -0.843400
      7 C11        -37.1370    22.4930   -26.1300 ca         1 WCK       0.345000
      8 C12        -38.1280    21.8250   -25.3850 ca         1 WCK      -0.186000
      9 C13        -38.0620    20.4330   -25.1850 ca         1 WCK      -0.065500
     10 C10        -36.0740    21.7380   -26.6640 ca         1 WCK      -0.186000
     11 C9         -36.0080    20.3460   -26.4650 ca         1 WCK      -0.065500
     12 C8         -37.0110    19.6770   -25.7350 ca         1 WCK       0.238000
     13 N4         -36.9740    18.2920   -25.5120 nu         1 WCK      -0.948900
     14 C5         -36.4710    17.2120   -26.2270 ca         1 WCK       0.393900
     15 N2         -36.0450    17.4190   -27.4850 nb         1 WCK      -0.248000
     16 N3         -36.4900    16.0430   -25.5690 nb         1 WCK      -0.254000
     17 C6         -36.0220    14.9760   -26.2390 ca         1 WCK       0.152900
     18 C7         -35.5500    15.0890   -27.5560 ca         1 WCK      -0.293000
     19 C4         -35.5770    16.3560   -28.1700 ca         1 WCK       0.278500
     20 C3         -35.0980    16.5120   -29.5530 cc         1 WCK      -0.347500
     21 S          -34.1050    15.3350   -30.3760 ss         1 WCK      -0.107400
     22 C1         -35.3330    17.6280   -30.3510 cd         1 WCK       0.418300
     23 C2         -36.1490    18.8610   -30.0520 c3         1 WCK      -0.124400
     24 N1         -34.7370    17.5600   -31.6060 nd         1 WCK      -0.759000
     25 C          -34.0940    16.4350   -31.7170 cc         1 WCK       0.730300
     26 N          -33.4500    16.2160   -32.8610 nv         1 WCK      -1.066900
     27 H141       -39.3120    24.0170   -26.7210 h1         1 WCK       0.050450
     28 H142       -38.7790    24.9230   -25.2920 h1         1 WCK       0.050450
     29 H152       -39.3740    26.4780   -27.1620 h1         1 WCK       0.051200
     30 H151       -38.2400    25.6450   -28.2390 h1         1 WCK       0.051200
     31 H162       -35.3050    26.8050   -26.3520 h1         1 WCK       0.051200
     32 H161       -36.3630    26.2270   -25.0530 h1         1 WCK       0.051200
     33 H171       -35.7250    24.7120   -27.6590 h1         1 WCK       0.050450
     34 H172       -35.1220    24.3310   -26.0340 h1         1 WCK       0.050450
     35 H12        -38.9500    22.3800   -24.9450 ha         1 WCK       0.113000
     36 H13        -38.8390    19.9400   -24.6060 ha         1 WCK       0.118000
     37 H10        -35.2930    22.2220   -27.2420 ha         1 WCK       0.113000
     38 H9         -35.1640    19.7960   -26.8680 ha         1 WCK       0.118000
     39 H1         -37.4960    17.9900   -24.6880 hn         1 WCK       0.513000
     40 H6         -36.0300    14.0210   -25.7170 h4         1 WCK       0.017100
     41 H7C1       -35.1850    14.2100   -28.0770 ha         1 WCK       0.133000
     42 H2C3       -36.2970    19.4710   -30.9510 hc         1 WCK       0.059700
     43 H2C1       -37.1420    18.5960   -29.6750 hc         1 WCK       0.059700
     44 H2C2       -35.6480    19.4910   -29.3100 hc         1 WCK       0.059700
     45 HN1        -33.3110    17.0500   -33.4170 hn         1 WCK       0.497500
     46 HN2        -32.6700    15.5700   -32.8250 hn         1 WCK       0.497500
@<TRIPOS>BOND
     1     1     2 1   
     2     1     6 1   
     3     1    27 1   
     4     1    28 1   
     5     2     3 1   
     6     2    29 1   
     7     2    30 1   
     8     3     4 1   
     9     4     5 1   
    10     4    31 1   
    11     4    32 1   
    12     5     6 1   
    13     5    33 1   
    14     5    34 1   
    15     6     7 1   
    16     7     8 ar  
    17     7    10 ar  
    18     8     9 ar  
    19     8    35 1   
    20     9    12 ar  
    21     9    36 1   
    22    10    11 ar  
    23    10    37 1   
    24    11    12 ar  
    25    11    38 1   
    26    12    13 1   
    27    13    14 1   
    28    13    39 1   
    29    14    15 ar  
    30    14    16 ar  
    31    15    19 ar  
    32    16    17 ar  
    33    17    18 ar  
    34    17    40 1   
    35    18    19 ar  
    36    18    41 1   
    37    19    20 1   
    38    20    21 1   
    39    20    22 2   
    40    21    25 1   
    41    22    23 1   
    42    22    24 1   
    43    23    42 1   
    44    23    43 1   
    45    23    44 1   
    46    24    25 2   
    47    25    26 1   
    48    26    45 1   
    49    26    46 1   
@<TRIPOS>SUBSTRUCTURE
     1 WCK         1 TEMP              0 ****  ****    0 ROOT
