@<TRIPOS>MOLECULE
WCK
   46    49     1     0     0
SMALL
abcg2


@<TRIPOS>ATOM
      1 C14        -38.4010    24.2770   -26.7750 c6         1 WCK       0.198300
      2 C15        -38.1810    25.3910   -27.7840 c6         1 WCK       0.145100
      3 O          -37.2820    26.3860   -27.3410 os         1 WCK      -0.453000
      4 C16        -36.3190    25.9290   -26.4170 c6         1 WCK       0.145100
      5 C17        -35.9540    24.4680   -26.5980 c6         1 WCK       0.198300
      6 N5         -37.1370    23.6470   -26.4530 nh         1 WCK      -0.843400
      7 C11        -37.0510    22.3190   -26.1350 ca         1 WCK       0.345000
      8 C12        -38.1880    21.5720   -25.7790 ca         1 WCK      -0.186000
      9 C13        -38.0910    20.2240   -25.4790 ca         1 WCK      -0.065500
     10 C10        -35.8160    21.6440   -26.1410 ca         1 WCK      -0.186000
     11 C9         -35.7310    20.3050   -25.8110 ca         1 WCK      -0.065500
     12 C8         -36.8660    19.5680   -25.4880 ca         1 WCK       0.238000
     13 N4         -36.7820    18.2000   -25.1520 nu         1 WCK      -0.948900
     14 C5         -36.3840    17.2130   -25.9910 ca         1 WCK       0.393900
     15 N2         -36.0440    17.5450   -27.2320 nb         1 WCK      -0.248000
     16 N3         -36.3750    15.9770   -25.4750 nb         1 WCK      -0.254000
     17 C6         -35.9830    15.0200   -26.3020 ca         1 WCK       0.152900
     18 C7         -35.6020    15.2450   -27.6100 ca         1 WCK      -0.293000
     19 C4         -35.6540    16.5730   -28.0540 ca         1 WCK       0.278500
     20 C3         -35.3030    16.9450   -29.4060 cc         1 WCK      -0.347500
     21 S          -34.6960    15.7490   -30.5320 ss         1 WCK      -0.107400
     22 C1         -35.3720    18.1610   -30.0440 cd         1 WCK       0.418300
     23 C2         -35.8440    19.4520   -29.4620 c3         1 WCK      -0.124400
     24 N1         -34.9720    18.1680   -31.3430 nd         1 WCK      -0.759000
     25 C          -34.5910    16.9840   -31.7420 cc         1 WCK       0.730300
     26 N          -34.1820    16.7150   -32.9860 nv         1 WCK      -1.066900
     27 H141       -39.0750    23.5550   -27.2410 h1         1 WCK       0.050450
     28 H142       -38.9120    24.6580   -25.8820 h1         1 WCK       0.050450
     29 H152       -39.1380    25.8730   -27.9940 h1         1 WCK       0.051200
     30 H151       -37.8270    24.9480   -28.7230 h1         1 WCK       0.051200
     31 H162       -35.4210    26.5380   -26.5420 h1         1 WCK       0.051200
     32 H161       -36.6720    26.0780   -25.3880 h1         1 WCK       0.051200
     33 H171       -35.4560    24.3120   -27.5640 h1         1 WCK       0.050450
     34 H172       -35.2250    24.2220   -25.8220 h1         1 WCK       0.050450
     35 H12        -39.1610    22.0410   -25.7250 ha         1 WCK       0.113000
     36 H13        -38.9900    19.6750   -25.2230 ha         1 WCK       0.118000
     37 H10        -34.9070    22.1610   -26.4180 ha         1 WCK       0.113000
     38 H9         -34.7630    19.8210   -25.8220 ha         1 WCK       0.118000
     39 H1         -37.1420    17.8980   -24.2600 hn         1 WCK       0.513000
     40 H6         -35.9710    14.0120   -25.9000 h4         1 WCK       0.017100
     41 H7C1       -35.2950    14.4210   -28.2390 ha         1 WCK       0.133000
     42 H2C3       -35.8480    20.2190   -30.2340 hc         1 WCK       0.059700
     43 H2C1       -36.8470    19.3620   -29.0480 hc         1 WCK       0.059700
     44 H2C2       -35.2070    19.7830   -28.6430 hc         1 WCK       0.059700
     45 HN1        -34.0140    17.4860   -33.6110 hn         1 WCK       0.497500
     46 HN2        -33.7500    15.8370   -33.2200 hn         1 WCK       0.497500
@<TRIPOS>BOND
     1     1     2 1   
     2     1     6 1   
     3     1    27 1   
     4     1    28 1   
     5     2     3 1   
     6     2    29 1   
     7     2    30 1   
     8     3     4 1   
     9     4     5 1   
    10     4    31 1   
    11     4    32 1   
    12     5     6 1   
    13     5    33 1   
    14     5    34 1   
    15     6     7 1   
    16     7     8 ar  
    17     7    10 ar  
    18     8     9 ar  
    19     8    35 1   
    20     9    12 ar  
    21     9    36 1   
    22    10    11 ar  
    23    10    37 1   
    24    11    12 ar  
    25    11    38 1   
    26    12    13 1   
    27    13    14 1   
    28    13    39 1   
    29    14    15 ar  
    30    14    16 ar  
    31    15    19 ar  
    32    16    17 ar  
    33    17    18 ar  
    34    17    40 1   
    35    18    19 ar  
    36    18    41 1   
    37    19    20 1   
    38    20    21 1   
    39    20    22 2   
    40    21    25 1   
    41    22    23 1   
    42    22    24 1   
    43    23    42 1   
    44    23    43 1   
    45    23    44 1   
    46    24    25 2   
    47    25    26 1   
    48    26    45 1   
    49    26    46 1   
@<TRIPOS>SUBSTRUCTURE
     1 WCK         1 TEMP              0 ****  ****    0 ROOT
