@<TRIPOS>MOLECULE
WCP
   63    69     1     0     0
SMALL
No Charge or Current Charge


@<TRIPOS>ATOM
      1 O1           3.3910    -3.7160    -2.1610 o          1 WCP      -0.538000
      2 C2           4.8440    -0.1800     0.3350 ca         1 WCP      -0.197300
      3 C3           5.2690     0.4110     1.5400 ca         1 WCP       0.195000
      4 C4           5.3660    -0.4200     2.6940 ca         1 WCP       0.263900
      5 C5           4.6640    -2.2990     1.5210 ca         1 WCP       0.298800
      6 C6           4.3050    -3.7100     1.4060 cc         1 WCP      -0.189800
      7 C7           3.8770    -4.1550     0.1480 cd         1 WCP      -0.287200
      8 C8           3.7670    -3.2970    -1.0760 c          1 WCP       0.569200
      9 C9           4.6150     0.4000    -1.0590 c5         1 WCP       0.253300
     10 C11          3.6600     1.6370    -1.1040 c3         1 WCP      -0.049400
     11 C14         -0.4200     1.4470    -0.0610 c6         1 WCP       0.155200
     12 C15         -0.0260     2.9040    -0.4490 c6         1 WCP      -0.087900
     13 C18         -4.3350     1.4060    -0.2840 ca         1 WCP       0.359300
     14 C19         -6.2570     0.1370    -0.3140 ca         1 WCP       0.434900
     15 C20         -8.1570    -1.3740    -0.3680 c          1 WCP       0.547000
     16 C21         -9.0040    -0.1700     0.1130 c6         1 WCP       0.070600
     17 C22         -6.9390     1.0120     0.5630 ca         1 WCP       0.036100
     18 O3          -8.5540    -2.5320    -0.3620 o          1 WCP      -0.518000
     19 N5          -6.8800    -1.0350    -0.7360 ns         1 WCP      -0.317900
     20 O4          -8.2380     0.7370     0.9590 os         1 WCP      -0.319100
     21 N4          -4.9910     0.3040    -0.7370 nb         1 WCP      -0.671000
     22 C23         -6.2560     2.1390     1.0390 ca         1 WCP      -0.072000
     23 C24         -4.9320     2.3360     0.5980 ca         1 WCP      -0.163000
     24 N3          -1.8600     1.3320     0.2840 n7         1 WCP      -0.852400
     25 C13          0.0280     0.5100    -1.2420 c6         1 WCP       0.168600
     26 O2           1.4470     0.6870    -1.5480 os         1 WCP      -0.463000
     27 C16          1.5040     2.9790    -0.7450 c6         1 WCP      -0.095400
     28 C25          0.4340     1.0440     1.1790 c6         1 WCP      -0.087900
     29 C26          1.9510     1.0330     0.8140 c6         1 WCP      -0.095400
     30 C12          2.1600     1.5630    -0.6400 c6         1 WCP       0.185000
     31 O5           5.8730     0.8480    -1.5560 oh         1 WCP      -0.644000
     32 C10          4.1260    -0.8970    -1.8890 c5         1 WCP       0.071000
     33 N1           4.1390    -1.9630    -0.8570 n          1 WCP      -0.254000
     34 N2           5.0690    -1.7590     2.6970 nb         1 WCP      -0.591000
     35 C1           4.5610    -1.5140     0.3740 ca         1 WCP       0.068600
     36 F            5.5690     1.7270     1.6070 f          1 WCP      -0.155000
     37 H1           5.6900     0.0020     3.6440 h4         1 WCP       0.042100
     38 H2           4.3640    -4.3810     2.2590 ha         1 WCP       0.207000
     39 H3           3.5910    -5.1880    -0.0190 ha         1 WCP       0.213000
     40 H4           4.1390     2.4400    -0.5310 hc         1 WCP       0.067200
     41 H5           3.6600     2.0050    -2.1370 hc         1 WCP       0.067200
     42 H6          -0.5810     3.2270    -1.3400 hc         1 WCP       0.049200
     43 H7          -0.2890     3.6040     0.3560 hc         1 WCP       0.049200
     44 H8          -9.3400     0.3690    -0.7830 h1         1 WCP       0.086700
     45 H9          -9.8800    -0.5450     0.6590 h1         1 WCP       0.086700
     46 H10         -6.2800    -1.7610    -1.1000 hn         1 WCP       0.181000
     47 H11         -6.7350     2.8370     1.7220 ha         1 WCP       0.137000
     48 H12         -4.3680     3.2010     0.9370 ha         1 WCP       0.127000
     49 H13         -2.7220     0.9680    -1.6410 h1         1 WCP       0.046700
     50 H14         -2.8020     2.6480    -1.1160 h1         1 WCP       0.046700
     51 H15         -2.0490     1.9350     1.0940 hn         1 WCP       0.416000
     52 H17         -0.1500    -0.5410    -0.9750 h1         1 WCP       0.056200
     53 H18         -0.5510     0.7310    -2.1490 h1         1 WCP       0.056200
     54 H19          1.6650     3.3990    -1.7480 hc         1 WCP       0.052700
     55 H20          1.9860     3.6700    -0.0400 hc         1 WCP       0.052700
     56 H21          0.2540     1.7420     2.0090 hc         1 WCP       0.049200
     57 H22          0.1350     0.0500     1.5400 hc         1 WCP       0.049200
     58 H23          2.5200     1.6370     1.5330 hc         1 WCP       0.052700
     59 H24          2.3140     0.0030     0.8990 hc         1 WCP       0.052700
     60 H25          6.5250     0.1530    -1.3250 ho         1 WCP       0.454000
     61 H26          3.1300    -0.7830    -2.3270 h1         1 WCP       0.078700
     62 H27          4.8170    -1.1390    -2.7070 h1         1 WCP       0.078700
     63 C17         -2.8880     1.6110    -0.7660 c3         1 WCP       0.120500
@<TRIPOS>BOND
     1     1     8 2   
     2     2     3 ar  
     3     2     9 1   
     4     2    35 ar  
     5     3     4 ar  
     6     3    36 1   
     7     4    34 ar  
     8     4    37 1   
     9     5     6 1   
    10     5    34 ar  
    11     5    35 ar  
    12     6     7 2   
    13     6    38 1   
    14     7     8 1   
    15     7    39 1   
    16     8    33 1   
    17     9    10 1   
    18     9    31 1   
    19     9    32 1   
    20    10    30 1   
    21    10    40 1   
    22    10    41 1   
    23    11    12 1   
    24    11    24 1   
    25    11    25 1   
    26    11    28 1   
    27    12    27 1   
    28    12    42 1   
    29    12    43 1   
    30    13    21 ar  
    31    13    23 ar  
    32    13    63 1   
    33    14    17 ar  
    34    14    19 1   
    35    14    21 ar  
    36    15    16 1   
    37    15    18 2   
    38    15    19 1   
    39    16    20 1   
    40    16    44 1   
    41    16    45 1   
    42    17    20 1   
    43    17    22 ar  
    44    19    46 1   
    45    22    23 ar  
    46    22    47 1   
    47    23    48 1   
    48    24    51 1   
    49    24    63 1   
    50    25    26 1   
    51    25    52 1   
    52    25    53 1   
    53    26    30 1   
    54    27    30 1   
    55    27    54 1   
    56    27    55 1   
    57    28    29 1   
    58    28    56 1   
    59    28    57 1   
    60    29    30 1   
    61    29    58 1   
    62    29    59 1   
    63    31    60 1   
    64    32    33 1   
    65    32    61 1   
    66    32    62 1   
    67    33    35 1   
    68    49    63 1   
    69    50    63 1   
@<TRIPOS>SUBSTRUCTURE
     1 WCP         1 TEMP              0 ****  ****    0 ROOT
