@<TRIPOS>MOLECULE
WCP
   63    69     1     0     0
SMALL
abcg2


@<TRIPOS>ATOM
      1 O1           2.5460    -2.7250    -3.0730 o          1 WCP      -0.538000
      2 C2           4.1780    -0.5040     0.5270 ca         1 WCP      -0.197300
      3 C3           4.4220    -0.4270     1.8690 ca         1 WCP       0.195000
      4 C4           3.9280    -1.4210     2.7310 ca         1 WCP       0.263900
      5 C5           2.9930    -2.5780     0.9970 ca         1 WCP       0.298800
      6 C6           2.2580    -3.6530     0.4000 cc         1 WCP      -0.189800
      7 C7           2.0990    -3.6890    -0.9430 cd         1 WCP      -0.287200
      8 C8           2.6560    -2.6870    -1.8550 c          1 WCP       0.569200
      9 C9           4.5220     0.3420    -0.6810 c5         1 WCP       0.253300
     10 C11          3.8640     1.7300    -0.6970 c3         1 WCP      -0.049400
     11 C14         -0.1650     1.9430     0.0210 c6         1 WCP       0.155200
     12 C15          0.2470     3.0200    -0.9920 c6         1 WCP      -0.087900
     13 C18         -3.8580     1.4480    -0.4640 ca         1 WCP       0.359300
     14 C19         -5.1990    -0.2340     0.2870 ca         1 WCP       0.434900
     15 C20         -6.5450    -2.1550     0.8400 c          1 WCP       0.547000
     16 C21         -7.7280    -1.2780     0.4770 c6         1 WCP       0.070600
     17 C22         -6.3330     0.5840     0.2990 ca         1 WCP       0.036100
     18 O3          -6.6780    -3.3170     1.1590 o          1 WCP      -0.518000
     19 N5          -5.3400    -1.5480     0.7140 ns         1 WCP      -0.317900
     20 O4          -7.5130     0.0960     0.7410 os         1 WCP      -0.319100
     21 N4          -4.0080     0.1780    -0.0790 nb         1 WCP      -0.671000
     22 C23         -6.1890     1.8910    -0.1060 ca         1 WCP      -0.072000
     23 C24         -4.9240     2.3320    -0.4880 ca         1 WCP      -0.163000
     24 N3          -1.5880     1.8400     0.2910 n7         1 WCP      -0.852400
     25 C13          0.3570     0.5950    -0.4830 c6         1 WCP       0.168600
     26 O2           1.7030     0.7120    -0.9130 os         1 WCP      -0.463000
     27 C16          1.7840     3.0980    -1.0500 c6         1 WCP      -0.095400
     28 C25          0.5740     2.2350     1.3280 c6         1 WCP      -0.087900
     29 C26          2.0720     1.9520     1.1230 c6         1 WCP      -0.095400
     30 C12          2.3690     1.8490    -0.3790 c6         1 WCP       0.185000
     31 O5           5.9000     0.6000    -0.7670 oh         1 WCP      -0.644000
     32 C10          4.0300    -0.5680    -1.8630 c5         1 WCP       0.071000
     33 N1           3.3370    -1.6820    -1.2270 n          1 WCP      -0.254000
     34 N2           3.2290    -2.4550     2.3100 nb         1 WCP      -0.591000
     35 C1           3.4790    -1.6240     0.1180 ca         1 WCP       0.068600
     36 F            5.0920     0.5990     2.3930 f          1 WCP      -0.155000
     37 H1           4.1170    -1.3410     3.7960 h4         1 WCP       0.042100
     38 H2           1.8370    -4.4270     1.0280 ha         1 WCP       0.207000
     39 H3           1.5500    -4.4970    -1.4070 ha         1 WCP       0.213000
     40 H4           4.4060     2.3720     0.0020 hc         1 WCP       0.067200
     41 H5           4.0530     2.1370    -1.6950 hc         1 WCP       0.067200
     42 H6          -0.1560     2.7830    -1.9800 hc         1 WCP       0.049200
     43 H7          -0.1820     3.9800    -0.6950 hc         1 WCP       0.049200
     44 H8          -7.9560    -1.4400    -0.5840 h1         1 WCP       0.086700
     45 H9          -8.5920    -1.5870     1.0610 h1         1 WCP       0.086700
     46 H10         -4.4980    -2.0940     0.8480 hn         1 WCP       0.181000
     47 H11         -7.0390     2.5620    -0.1060 ha         1 WCP       0.137000
     48 H12         -4.7780     3.3550    -0.8050 ha         1 WCP       0.127000
     49 H13         -2.1020     1.1900    -1.6200 h1         1 WCP       0.046700
     50 H14         -2.5320     2.8660    -1.3380 h1         1 WCP       0.046700
     51 H15         -1.8550     2.5750     0.9350 hn         1 WCP       0.416000
     52 H17          0.2660    -0.1550     0.3160 h1         1 WCP       0.056200
     53 H18         -0.2260     0.2350    -1.3360 h1         1 WCP       0.056200
     54 H19          2.1250     3.1650    -2.0850 hc         1 WCP       0.052700
     55 H20          2.1560     3.9890    -0.5390 hc         1 WCP       0.052700
     56 H21          0.4000     3.2750     1.6230 hc         1 WCP       0.049200
     57 H22          0.1680     1.6080     2.1250 hc         1 WCP       0.049200
     58 H23          2.6870     2.7390     1.5630 hc         1 WCP       0.052700
     59 H24          2.3400     1.0210     1.6220 hc         1 WCP       0.052700
     60 H25          6.3780    -0.2340    -0.8270 ho         1 WCP       0.454000
     61 H26          3.3730    -0.0460    -2.5520 h1         1 WCP       0.078700
     62 H27          4.8870    -0.9460    -2.4270 h1         1 WCP       0.078700
     63 C17         -2.4740     1.8800    -0.8590 c3         1 WCP       0.120500
@<TRIPOS>BOND
     1     1     8 2   
     2     2     3 ar  
     3     2     9 1   
     4     2    35 ar  
     5     3     4 ar  
     6     3    36 1   
     7     4    34 ar  
     8     4    37 1   
     9     5     6 1   
    10     5    34 ar  
    11     5    35 ar  
    12     6     7 2   
    13     6    38 1   
    14     7     8 1   
    15     7    39 1   
    16     8    33 1   
    17     9    10 1   
    18     9    31 1   
    19     9    32 1   
    20    10    30 1   
    21    10    40 1   
    22    10    41 1   
    23    11    12 1   
    24    11    24 1   
    25    11    25 1   
    26    11    28 1   
    27    12    27 1   
    28    12    42 1   
    29    12    43 1   
    30    13    21 ar  
    31    13    23 ar  
    32    13    63 1   
    33    14    17 ar  
    34    14    19 1   
    35    14    21 ar  
    36    15    16 1   
    37    15    18 2   
    38    15    19 1   
    39    16    20 1   
    40    16    44 1   
    41    16    45 1   
    42    17    20 1   
    43    17    22 ar  
    44    19    46 1   
    45    22    23 ar  
    46    22    47 1   
    47    23    48 1   
    48    24    51 1   
    49    24    63 1   
    50    25    26 1   
    51    25    52 1   
    52    25    53 1   
    53    26    30 1   
    54    27    30 1   
    55    27    54 1   
    56    27    55 1   
    57    28    29 1   
    58    28    56 1   
    59    28    57 1   
    60    29    30 1   
    61    29    58 1   
    62    29    59 1   
    63    31    60 1   
    64    32    33 1   
    65    32    61 1   
    66    32    62 1   
    67    33    35 1   
    68    49    63 1   
    69    50    63 1   
@<TRIPOS>SUBSTRUCTURE
     1 WCP         1 TEMP              0 ****  ****    0 ROOT
