@<TRIPOS>MOLECULE
WCR
   35    36     1     0     0
SMALL
bcc


@<TRIPOS>ATOM
      1 C1          -1.5720     1.1370     0.1800 c5         1 WCR       0.588400
      2 N1          -1.4360     3.4860     0.8390 n8         1 WCR      -0.918800
      3 O1          -2.1880     1.6730    -0.9320 oh         1 WCR      -0.537800
      4 C2          -1.2820    -1.1410     0.5920 c          1 WCR       0.718700
      5 N2          -0.1910     0.7570    -0.0840 nu         1 WCR      -0.765000
      6 O2          -1.5200    -2.3030     0.8720 o          1 WCR      -0.608500
      7 C3          -4.1640    -0.8790    -0.7750 c          1 WCR       0.928600
      8 N3          -2.1650    -0.1290     0.5330 n          1 WCR      -0.439800
      9 O3          -3.3630    -1.2640    -1.6380 o          1 WCR      -0.822800
     10 CZ           5.2490    -0.0630    -0.2610 ca         1 WCR       0.108100
     11 CA1         -1.6890     2.1480     1.3420 c3         1 WCR       0.077800
     12 CA2          0.0480    -0.5450     0.2920 ce         1 WCR       0.075800
     13 CA3         -3.5870    -0.3290     0.5510 c3         1 WCR      -0.045000
     14 CB2          1.1920    -1.2370     0.4110 cf         1 WCR      -0.198200
     15 CD1          2.8950     0.3250    -0.6070 ca         1 WCR      -0.104000
     16 CD2          3.6150    -1.5490     0.6840 ca         1 WCR      -0.104000
     17 CE1          4.2160     0.6890    -0.8140 ca         1 WCR      -0.191500
     18 CE2          4.9360    -1.1960     0.4870 ca         1 WCR      -0.191500
     19 CG2          2.5550    -0.7970     0.1570 ca         1 WCR      -0.031800
     20 OXT         -5.4100    -0.9020    -0.8170 o          1 WCR      -0.822800
     21 HN1         -1.9230     4.1770     1.3900 hn         1 WCR       0.346800
     22 HO1         -2.1350     2.6390    -0.7940 ho         1 WCR       0.425000
     23 HN2          0.5160     1.4500     0.1120 hn         1 WCR       0.399800
     24 HOH          6.6370     1.0450    -0.9640 ho         1 WCR       0.416000
     25 HA1         -2.7130     2.1160     1.7180 h1         1 WCR       0.053700
     26 HA3         -4.0770     0.6120     0.8040 h1         1 WCR       0.034700
     27 HA3A        -3.8320    -1.0280     1.3550 h1         1 WCR       0.034700
     28 HB2          1.0770    -2.2540     0.7690 ha         1 WCR       0.151000
     29 HD1          2.1310     0.9170    -1.0920 ha         1 WCR       0.136000
     30 HD2          3.3930    -2.4350     1.2680 ha         1 WCR       0.136000
     31 HE1          4.4390     1.5640    -1.4150 ha         1 WCR       0.127000
     32 HE2          5.7300    -1.7990     0.9100 ha         1 WCR       0.127000
     33 HN          -0.4530     3.7210     0.8800 hn         1 WCR       0.346800
     34 HA1A        -1.0370     1.8350     2.1640 h1         1 WCR       0.053700
     35 OH           6.5500     0.2510    -0.4260 oh         1 WCR      -0.506100
@<TRIPOS>BOND
     1     1     3 1   
     2     1     5 1   
     3     1     8 1   
     4     1    11 1   
     5     2    11 1   
     6     2    21 1   
     7     2    33 1   
     8     3    22 1   
     9     4     6 2   
    10     4     8 1   
    11     4    12 1   
    12     5    12 1   
    13     5    23 1   
    14     7     9 1   
    15     7    13 1   
    16     7    20 1   
    17     8    13 1   
    18    10    17 ar  
    19    10    18 ar  
    20    10    35 1   
    21    11    25 1   
    22    11    34 1   
    23    12    14 2   
    24    13    26 1   
    25    13    27 1   
    26    14    19 1   
    27    14    28 1   
    28    15    17 ar  
    29    15    19 ar  
    30    15    29 1   
    31    16    18 ar  
    32    16    19 ar  
    33    16    30 1   
    34    17    31 1   
    35    18    32 1   
    36    24    35 1   
@<TRIPOS>SUBSTRUCTURE
     1 WCR         1 TEMP              0 ****  ****    0 ROOT
