@<TRIPOS>MOLECULE
WCR
   35    36     1     0     0
SMALL
No Charge or Current Charge


@<TRIPOS>ATOM
      1 C1          -1.5360     0.8370     0.0120 c5         1 WCR       0.611600
      2 N1          -1.5860     3.3640     0.4870 n8         1 WCR      -1.029200
      3 O1          -1.9680     1.3950    -1.1820 oh         1 WCR      -0.600000
      4 C2          -1.2300    -1.3980     0.4980 c          1 WCR       0.576200
      5 N2          -0.0990     0.6060    -0.1470 nu         1 WCR      -0.820200
      6 O2          -1.4330    -2.5580     0.8420 o          1 WCR      -0.533000
      7 C3          -4.6470     0.0790    -0.3280 c          1 WCR       0.718000
      8 N3          -2.1960    -0.4290     0.3140 n          1 WCR      -0.372800
      9 O3          -4.9420    -0.4300    -1.4010 o          1 WCR      -0.717500
     10 CZ           5.3430     0.1130    -0.1320 ca         1 WCR       0.108100
     11 CA1         -1.7940     1.9810     1.0600 c3         1 WCR       0.077800
     12 CA2          0.0970    -0.7440     0.2350 ce         1 WCR       0.075800
     13 CA3         -3.6450    -0.6700     0.5880 c3         1 WCR      -0.045000
     14 CB2          1.3210    -1.3190     0.4220 cf         1 WCR      -0.248200
     15 CD1          2.9800     0.2290    -0.7030 ca         1 WCR      -0.086000
     16 CD2          3.7520    -1.3800     0.9440 ca         1 WCR      -0.086000
     17 CE1          4.3000     0.6860    -0.8740 ca         1 WCR      -0.173500
     18 CE2          5.0710    -0.9210     0.7740 ca         1 WCR      -0.173500
     19 CG2          2.6910    -0.8010     0.2180 ca         1 WCR      -0.031800
     20 OXT         -5.1520     1.1110     0.0910 o          1 WCR      -0.717500
     21 HN1         -1.9100     4.0650     1.1700 hn         1 WCR       0.402000
     22 HO1         -1.9470     2.3450    -0.8970 ho         1 WCR       0.464000
     23 HN2          0.5740     1.2850     0.1990 hn         1 WCR       0.455000
     24 HOH          6.6230     1.2680    -0.9630 ho         1 WCR       0.455000
     25 HA1         -2.8380     1.9100     1.3950 h1         1 WCR       0.053700
     26 HA3         -3.8510    -0.3850     1.6270 h1         1 WCR       0.034700
     27 HA3A        -3.8560    -1.7420     0.4940 h1         1 WCR       0.034700
     28 HB2          1.3020    -2.3500     0.7840 ha         1 WCR       0.201000
     29 HD1          2.1930     0.6650    -1.3120 ha         1 WCR       0.118000
     30 HD2          3.5540    -2.1820     1.6520 ha         1 WCR       0.118000
     31 HE1          4.5030     1.4790    -1.5890 ha         1 WCR       0.109000
     32 HE2          5.8790    -1.3710     1.3450 ha         1 WCR       0.109000
     33 HN          -0.5780     3.5660     0.4210 hn         1 WCR       0.402000
     34 HA1A        -1.1540     1.8370     1.9420 h1         1 WCR       0.053700
     35 OH           6.6230     0.5510    -0.2940 oh         1 WCR      -0.545100
@<TRIPOS>BOND
     1     1     3 1   
     2     1     5 1   
     3     1     8 1   
     4     1    11 1   
     5     2    11 1   
     6     2    21 1   
     7     2    33 1   
     8     3    22 1   
     9     4     6 2   
    10     4     8 1   
    11     4    12 1   
    12     5    12 1   
    13     5    23 1   
    14     7     9 1   
    15     7    13 1   
    16     7    20 1   
    17     8    13 1   
    18    10    17 ar  
    19    10    18 ar  
    20    10    35 1   
    21    11    25 1   
    22    11    34 1   
    23    12    14 2   
    24    13    26 1   
    25    13    27 1   
    26    14    19 1   
    27    14    28 1   
    28    15    17 ar  
    29    15    19 ar  
    30    15    29 1   
    31    16    18 ar  
    32    16    19 ar  
    33    16    30 1   
    34    17    31 1   
    35    18    32 1   
    36    24    35 1   
@<TRIPOS>SUBSTRUCTURE
     1 WCR         1 TEMP              0 ****  ****    0 ROOT
