@<TRIPOS>MOLECULE
WCS
   62    64     1     0     0
SMALL
No Charge or Current Charge


@<TRIPOS>ATOM
      1 C10         16.7800     9.7750   127.9440 cp         1 WCS      -0.211500
      2 C11         17.9270    10.3460   128.7290 cp         1 WCS       0.222500
      3 C13         19.2970    10.2440   130.5990 ca         1 WCS       0.034900
      4 C15         20.9210     8.1500   131.6200 c3         1 WCS      -0.328100
      5 O16         18.5660     8.6560   132.6490 o          1 WCS      -0.502000
      6 O17         20.4750    10.3190   133.0210 o          1 WCS      -0.502000
      7 C19         19.7280    11.9190   129.0900 ca         1 WCS       0.377900
      8 C01         13.9070     5.9470   121.5930 c3         1 WCS       0.149600
      9 C03         12.3560     6.7030   123.3460 c3         1 WCS       0.166800
     10 C04         11.7630     7.8750   124.1640 c3         1 WCS      -0.074400
     11 C05         12.8210     8.8280   124.7540 c3         1 WCS       0.170600
     12 C07         14.6150     8.6840   126.4420 ca         1 WCS       0.177100
     13 C08         15.2980     7.8950   127.3760 ca         1 WCS      -0.191000
     14 C09         16.3640     8.4270   128.1200 ca         1 WCS      -0.030000
     15 C21         20.4830    13.7490   127.4630 c3         1 WCS       0.230800
     16 C22         21.1160    12.9050   126.3350 c3         1 WCS      -0.120400
     17 C23         20.7170    13.3720   124.9180 c3         1 WCS       0.092600
     18 C25         18.2610    14.0530   124.6770 cc         1 WCS      -0.174000
     19 C26         17.1580    13.3280   124.3300 cd         1 WCS      -0.226000
     20 C27         17.5800    12.0120   124.0620 cd         1 WCS       0.235900
     21 C29         18.6670    11.4690   128.2940 ca         1 WCS      -0.257000
     22 C30         16.0690    10.5610   126.9990 ca         1 WCS      -0.030000
     23 C31         15.0030    10.0260   126.2560 ca         1 WCS      -0.191000
     24 C32         12.4230     7.8450   121.1340 c3         1 WCS       0.149600
     25 N02         13.1760     7.0960   122.1690 n3         1 WCS      -0.713600
     26 N12         18.2640     9.7360   129.8840 nb         1 WCS      -0.190000
     27 N18         20.0460    11.3160   130.2450 nb         1 WCS      -0.197000
     28 N20         20.5080    13.0140   128.7380 nu         1 WCS      -0.928100
     29 N24         19.2960    13.1240   124.6050 na         1 WCS       0.121800
     30 N28         18.8800    11.8610   124.2220 nc         1 WCS      -0.534800
     31 O06         13.5780     8.1040   125.7410 os         1 WCS      -0.343100
     32 S14         19.7360     9.3940   132.1490 sy         1 WCS       0.989100
     33 H1          21.2410     7.5860   132.5030 h1         1 WCS       0.106367
     34 H2          20.4280     7.4920   130.8980 h1         1 WCS       0.106367
     35 H3          21.7720     8.6620   131.1590 h1         1 WCS       0.106367
     36 H4          14.5280     5.4590   122.3560 h1         1 WCS       0.030033
     37 H5          13.2090     5.2000   121.1890 h1         1 WCS       0.030033
     38 H6          14.5690     6.2740   120.7800 h1         1 WCS       0.030033
     39 H7          11.5280     6.0590   123.0190 h1         1 WCS       0.037700
     40 H8          12.9690     6.1000   124.0310 h1         1 WCS       0.037700
     41 H9          11.0690     8.4500   123.5410 hc         1 WCS       0.050700
     42 H10         11.1620     7.4640   124.9840 hc         1 WCS       0.050700
     43 H11         13.4730     9.2010   123.9530 h1         1 WCS       0.041700
     44 H12         12.3140     9.6850   125.2160 h1         1 WCS       0.041700
     45 H13         15.0010     6.8600   127.5240 ha         1 WCS       0.122000
     46 H14         16.8760     7.7810   128.8300 ha         1 WCS       0.123000
     47 H15         21.0390    14.6920   127.5530 h1         1 WCS       0.056700
     48 H16         19.4450    14.0090   127.2110 h1         1 WCS       0.056700
     49 H17         20.8310    11.8510   126.4420 hc         1 WCS       0.070700
     50 H18         22.2070    12.9430   126.4370 hc         1 WCS       0.070700
     51 H19         21.3280    12.8380   124.1790 h1         1 WCS       0.061200
     52 H20         20.9250    14.4440   124.8080 h1         1 WCS       0.061200
     53 H21         18.3970    15.0900   124.9590 h4         1 WCS       0.152000
     54 H22         16.1390    13.6940   124.2690 ha         1 WCS       0.148000
     55 H23         16.9770    11.1640   123.7600 h4         1 WCS       0.037100
     56 H24         18.4330    11.9580   127.3570 ha         1 WCS       0.147000
     57 H25         16.3300    11.6050   126.8420 ha         1 WCS       0.123000
     58 H26         14.4910    10.6690   125.5460 ha         1 WCS       0.122000
     59 H27         12.0210     8.7840   121.5340 h1         1 WCS       0.030033
     60 H28         13.0770     8.1020   120.2900 h1         1 WCS       0.030033
     61 H29         11.5870     7.2460   120.7470 h1         1 WCS       0.030033
     62 H31         21.2450    13.2560   129.4050 hn         1 WCS       0.513000
@<TRIPOS>BOND
     1     1     2 1   
     2     1    14 ar  
     3     1    22 ar  
     4     2    21 ar  
     5     2    26 ar  
     6     3    26 ar  
     7     3    27 ar  
     8     3    32 1   
     9     4    32 1   
    10     4    33 1   
    11     4    34 1   
    12     4    35 1   
    13     5    32 2   
    14     6    32 2   
    15     7    21 ar  
    16     7    27 ar  
    17     7    28 1   
    18     8    25 1   
    19     8    36 1   
    20     8    37 1   
    21     8    38 1   
    22     9    10 1   
    23     9    25 1   
    24     9    39 1   
    25     9    40 1   
    26    10    11 1   
    27    10    41 1   
    28    10    42 1   
    29    11    31 1   
    30    11    43 1   
    31    11    44 1   
    32    12    13 ar  
    33    12    23 ar  
    34    12    31 1   
    35    13    14 ar  
    36    13    45 1   
    37    14    46 1   
    38    15    16 1   
    39    15    28 1   
    40    15    47 1   
    41    15    48 1   
    42    16    17 1   
    43    16    49 1   
    44    16    50 1   
    45    17    29 1   
    46    17    51 1   
    47    17    52 1   
    48    18    19 2   
    49    18    29 1   
    50    18    53 1   
    51    19    20 1   
    52    19    54 1   
    53    20    30 2   
    54    20    55 1   
    55    21    56 1   
    56    22    23 ar  
    57    22    57 1   
    58    23    58 1   
    59    24    25 1   
    60    24    59 1   
    61    24    60 1   
    62    24    61 1   
    63    28    62 1   
    64    29    30 1   
@<TRIPOS>SUBSTRUCTURE
     1 WCS         1 TEMP              0 ****  ****    0 ROOT
