@<TRIPOS>MOLECULE
WCS
   62    64     1     0     0
SMALL
abcg2


@<TRIPOS>ATOM
      1 C10         16.9100     9.6740   127.7600 cp         1 WCS      -0.211500
      2 C11         18.0580    10.1940   128.5160 cp         1 WCS       0.222500
      3 C13         19.4070    10.0220   130.2980 ca         1 WCS       0.034900
      4 C15         19.8600     7.4410   131.3240 c3         1 WCS      -0.328100
      5 O16         18.6160     9.3120   132.7110 o          1 WCS      -0.502000
      6 O17         21.0840     9.5650   132.3110 o          1 WCS      -0.502000
      7 C19         19.8650    11.7160   128.9090 ca         1 WCS       0.377900
      8 C01         13.8640     5.3540   122.2700 c3         1 WCS       0.149600
      9 C03         12.3110     6.5720   123.6130 c3         1 WCS       0.166800
     10 C04         11.8810     7.9280   124.1580 c3         1 WCS      -0.074400
     11 C05         13.0210     8.7850   124.6620 c3         1 WCS       0.170600
     12 C07         14.7030     8.6580   126.3450 ca         1 WCS       0.177100
     13 C08         15.3150     7.9020   127.3510 ca         1 WCS      -0.191000
     14 C09         16.3930     8.4060   128.0460 ca         1 WCS      -0.030000
     15 C21         20.4190    13.6430   127.4820 c3         1 WCS       0.230800
     16 C22         21.0420    13.0840   126.2060 c3         1 WCS      -0.120400
     17 C23         20.7070    13.9220   124.9830 c3         1 WCS       0.092600
     18 C25         18.5330    15.1040   124.5940 cc         1 WCS      -0.174000
     19 C26         17.2410    14.6900   124.3570 cd         1 WCS      -0.226000
     20 C27         17.3230    13.2900   124.3840 cd         1 WCS       0.235900
     21 C29         18.7990    11.2830   128.0970 ca         1 WCS      -0.257000
     22 C30         16.2930    10.4150   126.7550 ca         1 WCS      -0.030000
     23 C31         15.2060     9.9260   126.0500 ca         1 WCS      -0.191000
     24 C32         12.7860     7.2700   121.3610 c3         1 WCS       0.149600
     25 N02         13.3090     6.6580   122.5630 n3         1 WCS      -0.713600
     26 N12         18.3730     9.5470   129.6550 nb         1 WCS      -0.190000
     27 N18         20.1770    11.0390   130.0320 nb         1 WCS      -0.197000
     28 N20         20.6090    12.7880   128.6300 nu         1 WCS      -0.928100
     29 N24         19.2790    13.9950   124.7410 na         1 WCS       0.121800
     30 N28         18.5600    12.8830   124.6170 nc         1 WCS      -0.534800
     31 O06         13.6520     8.0990   125.7360 os         1 WCS      -0.343100
     32 S14         19.7730     9.1400   131.8360 sy         1 WCS       0.989100
     33 H1          20.1030     6.8570   132.2110 h1         1 WCS       0.106367
     34 H2          18.9000     7.1320   130.9220 h1         1 WCS       0.106367
     35 H3          20.6440     7.3280   130.5780 h1         1 WCS       0.106367
     36 H4          14.2980     4.9180   123.1710 h1         1 WCS       0.030033
     37 H5          13.1190     4.6430   121.8790 h1         1 WCS       0.030033
     38 H6          14.6570     5.4420   121.5270 h1         1 WCS       0.030033
     39 H7          11.4120     6.0290   123.2720 h1         1 WCS       0.037700
     40 H8          12.7310     5.9800   124.4290 h1         1 WCS       0.037700
     41 H9          11.3500     8.5050   123.3970 hc         1 WCS       0.050700
     42 H10         11.1580     7.7660   124.9620 hc         1 WCS       0.050700
     43 H11         13.7450     8.9730   123.8630 h1         1 WCS       0.041700
     44 H12         12.6350     9.7510   125.0040 h1         1 WCS       0.041700
     45 H13         14.9320     6.9150   127.5790 ha         1 WCS       0.122000
     46 H14         16.8490     7.8040   128.8200 ha         1 WCS       0.123000
     47 H15         20.8610    14.6100   127.7200 h1         1 WCS       0.056700
     48 H16         19.3490    13.8200   127.3460 h1         1 WCS       0.056700
     49 H17         20.7160    12.0550   126.0410 hc         1 WCS       0.070700
     50 H18         22.1280    13.0570   126.3110 hc         1 WCS       0.070700
     51 H19         21.1990    13.5100   124.1010 h1         1 WCS       0.061200
     52 H20         21.0600    14.9450   125.1060 h1         1 WCS       0.061200
     53 H21         18.9630    16.0900   124.6670 h4         1 WCS       0.152000
     54 H22         16.3740    15.3060   124.1920 ha         1 WCS       0.148000
     55 H23         16.5330    12.5700   124.2340 h4         1 WCS       0.037100
     56 H24         18.5810    11.7720   127.1590 ha         1 WCS       0.147000
     57 H25         16.6390    11.4130   126.5180 ha         1 WCS       0.123000
     58 H26         14.7570    10.5480   125.2880 ha         1 WCS       0.122000
     59 H27         12.4670     8.2960   121.5470 h1         1 WCS       0.030033
     60 H28         13.5610     7.3070   120.5940 h1         1 WCS       0.030033
     61 H29         11.9250     6.7230   120.9420 h1         1 WCS       0.030033
     62 H31         21.3740    12.9820   129.2560 hn         1 WCS       0.513000
@<TRIPOS>BOND
     1     1     2 1   
     2     1    14 ar  
     3     1    22 ar  
     4     2    21 ar  
     5     2    26 ar  
     6     3    26 ar  
     7     3    27 ar  
     8     3    32 1   
     9     4    32 1   
    10     4    33 1   
    11     4    34 1   
    12     4    35 1   
    13     5    32 2   
    14     6    32 2   
    15     7    21 ar  
    16     7    27 ar  
    17     7    28 1   
    18     8    25 1   
    19     8    36 1   
    20     8    37 1   
    21     8    38 1   
    22     9    10 1   
    23     9    25 1   
    24     9    39 1   
    25     9    40 1   
    26    10    11 1   
    27    10    41 1   
    28    10    42 1   
    29    11    31 1   
    30    11    43 1   
    31    11    44 1   
    32    12    13 ar  
    33    12    23 ar  
    34    12    31 1   
    35    13    14 ar  
    36    13    45 1   
    37    14    46 1   
    38    15    16 1   
    39    15    28 1   
    40    15    47 1   
    41    15    48 1   
    42    16    17 1   
    43    16    49 1   
    44    16    50 1   
    45    17    29 1   
    46    17    51 1   
    47    17    52 1   
    48    18    19 2   
    49    18    29 1   
    50    18    53 1   
    51    19    20 1   
    52    19    54 1   
    53    20    30 2   
    54    20    55 1   
    55    21    56 1   
    56    22    23 ar  
    57    22    57 1   
    58    23    58 1   
    59    24    25 1   
    60    24    59 1   
    61    24    60 1   
    62    24    61 1   
    63    28    62 1   
    64    29    30 1   
@<TRIPOS>SUBSTRUCTURE
     1 WCS         1 TEMP              0 ****  ****    0 ROOT
