@<TRIPOS>MOLECULE
WCT
   28    28     1     0     0
SMALL
No Charge or Current Charge


@<TRIPOS>ATOM
      1 N1          15.4280    11.5040   -42.6920 ns         1 WCT      -0.495900
      2 C7          14.7910    12.5670   -45.5190 c3         1 WCT       0.120300
      3 C8          15.0620    12.8710   -47.0310 c3         1 WCT       0.292000
      4 C1          17.5140    13.8190   -39.7680 cc         1 WCT       0.275300
      5 C5          14.6920    10.6960   -43.6730 c3         1 WCT       0.101000
      6 C6          15.0050    11.0750   -45.1410 c3         1 WCT      -0.130400
      7 C4          14.9680    12.6880   -42.1430 c          1 WCT       0.524600
      8 C3          15.8870    13.3030   -41.1390 cd         1 WCT       0.126500
      9 C2          17.0960    12.8560   -40.7010 cc         1 WCT      -0.211000
     10 F2          14.2180    12.1850   -47.8380 f          1 WCT      -0.111000
     11 F           14.9070    14.1900   -47.2960 f          1 WCT      -0.111000
     12 F1          16.3270    12.5330   -47.3740 f          1 WCT      -0.111000
     13 O2          13.4600    12.9620   -45.1350 oh         1 WCT      -0.656000
     14 O           15.5760    14.4810   -40.5090 os         1 WCT      -0.042700
     15 N           16.6550    14.8110   -39.6080 nd         1 WCT      -0.334300
     16 H1          16.3250    11.1610   -42.3660 hn         1 WCT       0.325500
     17 H2          15.5190    13.1610   -44.9490 h1         1 WCT       0.057700
     18 H3          13.6130    10.7940   -43.4870 h1         1 WCT       0.069700
     19 H4          14.9490     9.6400   -43.5150 h1         1 WCT       0.069700
     20 H5          14.3890    10.4440   -45.7930 hc         1 WCT       0.071200
     21 H6          16.0480    10.8050   -45.3490 hc         1 WCT       0.071200
     22 H7          17.6420    11.9640   -40.9850 ha         1 WCT       0.150000
     23 H8          13.4820    13.0650   -44.1440 ho         1 WCT       0.493000
     24 H9          18.9570    14.5630   -38.3490 hc         1 WCT       0.061033
     25 H10         18.8530    12.7950   -38.4380 hc         1 WCT       0.061033
     26 H11         19.6580    13.7030   -39.7330 hc         1 WCT       0.061033
     27 C           18.8170    13.7160   -39.0310 c3         1 WCT      -0.134400
     28 O1          13.8940    13.1720   -42.4800 o          1 WCT      -0.590100
@<TRIPOS>BOND
     1     1     5 1   
     2     1     7 1   
     3     1    16 1   
     4     2     3 1   
     5     2     6 1   
     6     2    13 1   
     7     2    17 1   
     8     3    10 1   
     9     3    11 1   
    10     3    12 1   
    11     4     9 1   
    12     4    15 2   
    13     4    27 1   
    14     5     6 1   
    15     5    18 1   
    16     5    19 1   
    17     6    20 1   
    18     6    21 1   
    19     7     8 1   
    20     7    28 2   
    21     8     9 2   
    22     8    14 1   
    23     9    22 1   
    24    13    23 1   
    25    14    15 1   
    26    24    27 1   
    27    25    27 1   
    28    26    27 1   
@<TRIPOS>SUBSTRUCTURE
     1 WCT         1 TEMP              0 ****  ****    0 ROOT
