@<TRIPOS>MOLECULE
WCT
   28    28     1     0     0
SMALL
abcg2


@<TRIPOS>ATOM
      1 N1          15.5360    11.4640   -42.7960 ns         1 WCT      -0.495900
      2 C7          14.7470    12.5620   -45.5210 c3         1 WCT       0.120300
      3 C8          14.9020    12.8510   -47.0070 c3         1 WCT       0.292000
      4 C1          17.5790    13.7720   -39.7260 cc         1 WCT       0.275300
      5 C5          14.7110    10.7310   -43.7480 c3         1 WCT       0.101000
      6 C6          14.9820    11.0830   -45.2120 c3         1 WCT      -0.130400
      7 C4          15.1480    12.6110   -42.2230 c          1 WCT       0.524600
      8 C3          16.0760    13.1710   -41.2110 cd         1 WCT       0.126500
      9 C2          17.2040    12.7180   -40.6070 cc         1 WCT      -0.211000
     10 F2          13.9820    12.2090   -47.7590 f          1 WCT      -0.111000
     11 F           14.7780    14.1660   -47.2790 f          1 WCT      -0.111000
     12 F1          16.1160    12.4670   -47.4580 f          1 WCT      -0.111000
     13 O2          13.4540    13.0040   -45.1590 oh         1 WCT      -0.656000
     14 O           15.7720    14.3990   -40.7480 os         1 WCT      -0.042700
     15 N           16.7320    14.7700   -39.8070 nd         1 WCT      -0.334300
     16 H1          16.4390    11.0820   -42.5620 hn         1 WCT       0.325500
     17 H2          15.5150    13.1700   -45.0290 h1         1 WCT       0.057700
     18 H3          13.6680    10.9170   -43.4990 h1         1 WCT       0.069700
     19 H4          14.9050     9.6700   -43.5970 h1         1 WCT       0.069700
     20 H5          14.3170    10.4720   -45.8260 hc         1 WCT       0.071200
     21 H6          16.0100    10.8210   -45.4670 hc         1 WCT       0.071200
     22 H7          17.7080    11.7770   -40.7440 ha         1 WCT       0.150000
     23 H8          13.4700    13.1230   -44.1870 ho         1 WCT       0.493000
     24 H9          18.7640    14.7690   -38.2620 hc         1 WCT       0.061033
     25 H10         18.7030    13.0030   -38.0890 hc         1 WCT       0.061033
     26 H11         19.6770    13.7250   -39.3690 hc         1 WCT       0.061033
     27 C           18.7480    13.8260   -38.8050 c3         1 WCT      -0.134400
     28 O1          14.0890    13.1940   -42.4880 o          1 WCT      -0.590100
@<TRIPOS>BOND
     1     1     5 1   
     2     1     7 1   
     3     1    16 1   
     4     2     3 1   
     5     2     6 1   
     6     2    13 1   
     7     2    17 1   
     8     3    10 1   
     9     3    11 1   
    10     3    12 1   
    11     4     9 1   
    12     4    15 2   
    13     4    27 1   
    14     5     6 1   
    15     5    18 1   
    16     5    19 1   
    17     6    20 1   
    18     6    21 1   
    19     7     8 1   
    20     7    28 2   
    21     8     9 2   
    22     8    14 1   
    23     9    22 1   
    24    13    23 1   
    25    14    15 1   
    26    24    27 1   
    27    25    27 1   
    28    26    27 1   
@<TRIPOS>SUBSTRUCTURE
     1 WCT         1 TEMP              0 ****  ****    0 ROOT
