@<TRIPOS>MOLECULE
WCU
   29    31     1     0     0
SMALL
No Charge or Current Charge


@<TRIPOS>ATOM
      1 C10         -0.6870     0.8580     0.7980 ca         1 WCU      -0.177000
      2 C13         -2.7860    -0.6880    -0.1530 ca         1 WCU       0.093100
      3 C01          4.6320     1.2700    -0.3800 ca         1 WCU      -0.079000
      4 C02          3.4410     1.9520    -0.6720 ca         1 WCU      -0.141000
      5 C03          2.2070     1.2840    -0.5930 ca         1 WCU      -0.097000
      6 C04          2.1450    -0.0730    -0.2110 ca         1 WCU       0.206000
      7 C05          3.3670    -0.7650     0.0790 ca         1 WCU       0.279000
      8 C06          4.5930    -0.0840    -0.0100 ca         1 WCU      -0.169000
      9 N07          3.3850    -2.0940     0.4700 nv         1 WCU      -1.067000
     10 N08          0.8960    -0.7410    -0.1750 nu         1 WCU      -0.992000
     11 C09         -0.4140    -0.3210     0.0630 ca         1 WCU       0.321000
     12 C11         -2.0170     1.2620     1.0440 ca         1 WCU      -0.054000
     13 C12         -3.0480     0.4570     0.5440 ca         1 WCU       0.001100
     14 C14         -1.4780    -1.1150    -0.4080 ca         1 WCU      -0.174000
     15 O15         -3.9180    -1.3340    -0.5320 os         1 WCU      -0.346100
     16 C16         -4.9800    -0.4270    -0.0660 c5         1 WCU       0.372600
     17 O17         -4.3780     0.6810     0.6950 os         1 WCU      -0.344100
     18 H1           0.1290     1.4540     1.1950 ha         1 WCU       0.129000
     19 H3           3.4730     2.9980    -0.9700 ha         1 WCU       0.117000
     20 H4           1.2990     1.8200    -0.8530 ha         1 WCU       0.121000
     21 H5           5.5220    -0.6020     0.2130 ha         1 WCU       0.113000
     22 H6           2.5330    -2.4810     0.8680 hn         1 WCU       0.450500
     23 H7           4.2560    -2.4890     0.8200 hn         1 WCU       0.450500
     24 H8           0.9700    -1.7350    -0.3980 hn         1 WCU       0.486000
     25 H9          -2.2370     2.1640     1.6110 ha         1 WCU       0.131000
     26 H10         -1.2960    -2.0300    -0.9610 ha         1 WCU       0.131000
     27 H11         -5.5090    -0.0190    -0.9350 h2         1 WCU       0.062700
     28 H13         -5.6790    -0.9770     0.5750 h2         1 WCU       0.062700
     29 H2           5.5860     1.7900    -0.4450 ha         1 WCU       0.113000
@<TRIPOS>BOND
     1     1    11 ar  
     2     1    12 ar  
     3     1    18 1   
     4     2    13 ar  
     5     2    14 ar  
     6     2    15 1   
     7     3     4 ar  
     8     3     8 ar  
     9     3    29 1   
    10     4     5 ar  
    11     4    19 1   
    12     5     6 ar  
    13     5    20 1   
    14     6     7 ar  
    15     6    10 1   
    16     7     8 ar  
    17     7     9 1   
    18     8    21 1   
    19     9    22 1   
    20     9    23 1   
    21    10    11 1   
    22    10    24 1   
    23    11    14 ar  
    24    12    13 ar  
    25    12    25 1   
    26    13    17 1   
    27    14    26 1   
    28    15    16 1   
    29    16    17 1   
    30    16    27 1   
    31    16    28 1   
@<TRIPOS>SUBSTRUCTURE
     1 WCU         1 TEMP              0 ****  ****    0 ROOT
