@<TRIPOS>MOLECULE
WCU
   29    31     1     0     0
SMALL
bcc


@<TRIPOS>ATOM
      1 C10         -0.5290     0.6600     0.8120 ca         1 WCU      -0.195000
      2 C13         -2.6960    -0.5890    -0.2920 ca         1 WCU       0.093100
      3 C01          4.4800     1.3220    -0.2780 ca         1 WCU      -0.097000
      4 C02          3.3300     1.9060    -0.7940 ca         1 WCU      -0.159000
      5 C03          2.1550     1.1690    -0.8280 ca         1 WCU      -0.115000
      6 C04          2.1050    -0.1290    -0.3340 ca         1 WCU       0.067600
      7 C05          3.2680    -0.7230     0.1920 ca         1 WCU       0.140600
      8 C06          4.4500     0.0240     0.2040 ca         1 WCU      -0.187000
      9 N07          3.2430    -2.0300     0.6300 nv         1 WCU      -0.818200
     10 N08          0.9260    -0.9010    -0.3540 nu         1 WCU      -0.660000
     11 C09         -0.3370    -0.4080    -0.0670 ca         1 WCU       0.182600
     12 C11         -1.8100     1.1210     1.1350 ca         1 WCU      -0.072000
     13 C12         -2.8810     0.4770     0.5710 ca         1 WCU       0.001100
     14 C14         -1.4520    -1.0500    -0.6410 ca         1 WCU      -0.192000
     15 O15         -3.9010    -1.0280    -0.7290 os         1 WCU      -0.322900
     16 C16         -4.8690    -0.3620     0.0750 c5         1 WCU       0.326200
     17 O17         -4.2160     0.7380     0.6860 os         1 WCU      -0.320900
     18 H1           0.3250     1.1450     1.2640 ha         1 WCU       0.147000
     19 H3           3.3490     2.9170    -1.1790 ha         1 WCU       0.135000
     20 H4           1.2550     1.6100    -1.2390 ha         1 WCU       0.139000
     21 H5           5.3510    -0.4230     0.6080 ha         1 WCU       0.131000
     22 H6           2.3370    -2.3560     0.9340 hn         1 WCU       0.395300
     23 H7           3.9680    -2.2750     1.2850 hn         1 WCU       0.395300
     24 H8           0.9440    -1.7010    -0.9700 hn         1 WCU       0.430800
     25 H9          -1.9370     1.9550     1.8110 ha         1 WCU       0.149000
     26 H10         -1.3290    -1.8760    -1.3310 ha         1 WCU       0.149000
     27 H11         -5.6860    -0.0070    -0.5530 h2         1 WCU       0.062700
     28 H13         -5.2460    -1.0490     0.8420 h2         1 WCU       0.062700
     29 H2           5.4080     1.8790    -0.2480 ha         1 WCU       0.131000
@<TRIPOS>BOND
     1     1    11 ar  
     2     1    12 ar  
     3     1    18 1   
     4     2    13 ar  
     5     2    14 ar  
     6     2    15 1   
     7     3     4 ar  
     8     3     8 ar  
     9     3    29 1   
    10     4     5 ar  
    11     4    19 1   
    12     5     6 ar  
    13     5    20 1   
    14     6     7 ar  
    15     6    10 1   
    16     7     8 ar  
    17     7     9 1   
    18     8    21 1   
    19     9    22 1   
    20     9    23 1   
    21    10    11 1   
    22    10    24 1   
    23    11    14 ar  
    24    12    13 ar  
    25    12    25 1   
    26    13    17 1   
    27    14    26 1   
    28    15    16 1   
    29    16    17 1   
    30    16    27 1   
    31    16    28 1   
@<TRIPOS>SUBSTRUCTURE
     1 WCU         1 TEMP              0 ****  ****    0 ROOT
