@<TRIPOS>MOLECULE
WCV
   47    50     1     0     0
SMALL
No Charge or Current Charge


@<TRIPOS>ATOM
      1 C23         -7.0450    26.9240   -23.2940 ca         1 WCV       0.173900
      2 C25         -7.8540    26.4700   -29.2730 ca         1 WCV      -0.197000
      3 C26         -8.0980    26.9790   -30.5660 ca         1 WCV       0.003000
      4 C10         -7.9580    28.3720   -30.7880 ca         1 WCV      -0.130300
      5 C02         -7.5480    24.9050   -31.9630 c          1 WCV       0.644100
      6 C03         -6.3480    24.6050   -31.0710 cx         1 WCV      -0.238700
      7 C04         -5.5070    23.3660   -31.3280 cx         1 WCV      -0.102400
      8 C05         -6.4150    23.4210   -30.1240 cx         1 WCV      -0.102400
      9 C07         -9.0930    26.6890   -32.7940 c6         1 WCV       0.095000
     10 C08         -8.3980    27.9640   -33.3070 c6         1 WCV      -0.098400
     11 C09         -8.2300    28.9970   -32.1660 c6         1 WCV      -0.022100
     12 C11         -7.6320    29.2230   -29.7160 ca         1 WCV      -0.075000
     13 C12         -7.4200    28.6990   -28.4320 ca         1 WCV      -0.135000
     14 C13         -7.5430    27.3190   -28.2000 ca         1 WCV       0.326000
     15 C15         -7.4090    27.2100   -25.6410 ca         1 WCV       0.423900
     16 C17         -8.0530    28.7950   -24.1340 ca         1 WCV       0.414900
     17 C19         -9.0720    31.0440   -24.8340 c3         1 WCV       0.323900
     18 C20         -7.9050    31.7010   -25.4430 c1         1 WCV      -0.175100
     19 C21         -6.9410    32.2180   -25.9640 c1         1 WCV      -0.225000
     20 C24         -6.9240    26.4200   -24.5970 ca         1 WCV      -0.344000
     21 N06         -8.2680    26.1100   -31.7090 n          1 WCV      -0.229400
     22 N14         -7.3280    26.7450   -26.9440 nu         1 WCV      -0.939900
     23 N16         -7.9900    28.3950   -25.4140 nb         1 WCV      -0.305000
     24 N18         -8.6380    30.0220   -23.8650 nu         1 WCV      -0.920100
     25 N22         -7.6120    28.1220   -23.0580 nb         1 WCV      -0.271000
     26 O01         -7.8330    24.1660   -32.9010 o          1 WCV      -0.593100
     27 H1          -6.6860    26.3670   -22.4300 h4         1 WCV       0.019100
     28 H2          -7.9530    25.4070   -29.0850 ha         1 WCV       0.120000
     29 H3          -5.7890    25.4790   -30.7490 hc         1 WCV       0.099700
     30 H4          -5.7880    22.6970   -32.1390 hc         1 WCV       0.080200
     31 H5          -4.4350    23.4360   -31.1560 hc         1 WCV       0.080200
     32 H6          -7.3100    22.8030   -30.1370 hc         1 WCV       0.080200
     33 H7          -5.9520    23.5270   -29.1450 hc         1 WCV       0.080200
     34 H8         -10.0880    26.9370   -32.3990 h1         1 WCV       0.067200
     35 H9          -9.2340    25.9830   -33.6230 h1         1 WCV       0.067200
     36 H10         -7.4110    27.6980   -33.7100 hc         1 WCV       0.052200
     37 H11         -8.9670    28.4050   -34.1370 hc         1 WCV       0.052200
     38 H12         -7.4300    29.7040   -32.4270 hc         1 WCV       0.050200
     39 H13         -9.1490    29.5960   -32.0960 hc         1 WCV       0.050200
     40 H14         -7.5390    30.2950   -29.8800 ha         1 WCV       0.113000
     41 H15         -7.1450    29.3720   -27.6280 ha         1 WCV       0.152000
     42 H16         -9.6770    31.8120   -24.3320 h1         1 WCV       0.071700
     43 H17         -9.6950    30.5980   -25.6230 h1         1 WCV       0.071700
     44 H18         -6.0790    32.6690   -26.4160 ha         1 WCV       0.255000
     45 H19         -6.4640    25.4530   -24.7790 ha         1 WCV       0.130000
     46 H20         -7.1260    25.7490   -26.9860 hn         1 WCV       0.498000
     47 H21         -8.6260    30.2970   -22.8830 hn         1 WCV       0.508000
@<TRIPOS>BOND
     1     1    20 ar  
     2     1    25 ar  
     3     1    27 1   
     4     2     3 ar  
     5     2    14 ar  
     6     2    28 1   
     7     3     4 ar  
     8     3    21 1   
     9     4    11 1   
    10     4    12 ar  
    11     5     6 1   
    12     5    21 1   
    13     5    26 2   
    14     6     7 1   
    15     6     8 1   
    16     6    29 1   
    17     7     8 1   
    18     7    30 1   
    19     7    31 1   
    20     8    32 1   
    21     8    33 1   
    22     9    10 1   
    23     9    21 1   
    24     9    34 1   
    25     9    35 1   
    26    10    11 1   
    27    10    36 1   
    28    10    37 1   
    29    11    38 1   
    30    11    39 1   
    31    12    13 ar  
    32    12    40 1   
    33    13    14 ar  
    34    13    41 1   
    35    14    22 1   
    36    15    20 ar  
    37    15    22 1   
    38    15    23 ar  
    39    16    23 ar  
    40    16    24 1   
    41    16    25 ar  
    42    17    18 1   
    43    17    24 1   
    44    17    42 1   
    45    17    43 1   
    46    18    19 3   
    47    19    44 1   
    48    20    45 1   
    49    22    46 1   
    50    24    47 1   
@<TRIPOS>SUBSTRUCTURE
     1 WCV         1 TEMP              0 ****  ****    0 ROOT
