@<TRIPOS>MOLECULE
WCV
   47    50     1     0     0
SMALL
bcc


@<TRIPOS>ATOM
      1 C23         -7.3650    26.9150   -23.2940 ca         1 WCV       0.502200
      2 C25         -7.8220    26.4890   -29.2140 ca         1 WCV      -0.215000
      3 C26         -7.9810    27.0000   -30.4990 ca         1 WCV       0.095600
      4 C10         -8.0340    28.3810   -30.7040 ca         1 WCV      -0.130300
      5 C02         -7.5070    24.9690   -31.8180 c          1 WCV       0.711100
      6 C03         -6.2950    24.6910   -30.9990 cx         1 WCV      -0.238700
      7 C04         -5.3530    23.6240   -31.4820 cx         1 WCV      -0.102400
      8 C05         -6.2100    23.3560   -30.2990 cx         1 WCV      -0.102400
      9 C07         -9.0650    26.6660   -32.6330 c6         1 WCV       0.095000
     10 C08         -8.4570    27.9550   -33.1630 c6         1 WCV      -0.098400
     11 C09         -8.3580    28.9870   -32.0450 c6         1 WCV      -0.022100
     12 C11         -7.8370    29.2010   -29.5980 ca         1 WCV      -0.093000
     13 C12         -7.6050    28.7090   -28.3260 ca         1 WCV      -0.153000
     14 C13         -7.6090    27.3270   -28.1220 ca         1 WCV       0.187600
     15 C15         -7.5250    27.1870   -25.6290 ca         1 WCV       0.752200
     16 C17         -8.0930    28.8460   -24.1880 ca         1 WCV       0.940900
     17 C19         -8.8050    31.0070   -25.1020 c3         1 WCV       0.323900
     18 C20         -7.5750    31.5360   -25.7010 c1         1 WCV      -0.175100
     19 C21         -6.5690    31.9730   -26.1920 c1         1 WCV      -0.137500
     20 C24         -7.2020    26.3580   -24.5400 ca         1 WCV      -0.492600
     21 N06         -8.1890    26.1350   -31.5930 n          1 WCV      -0.389000
     22 N14         -7.3830    26.7070   -26.8920 nu         1 WCV      -0.746300
     23 N16         -7.9670    28.4210   -25.4440 nb         1 WCV      -0.831000
     24 N18         -8.5780    30.0960   -24.0130 nu         1 WCV      -0.864900
     25 N22         -7.8050    28.1540   -23.0840 nb         1 WCV      -0.797000
     26 O01         -7.8650    24.1910   -32.6900 o          1 WCV      -0.593100
     27 H1          -7.1280    26.3350   -22.4090 h4         1 WCV       0.019100
     28 H2          -7.8730    25.4190   -29.0580 ha         1 WCV       0.138000
     29 H3          -5.8420    25.5270   -30.4840 hc         1 WCV       0.099700
     30 H4          -5.5910    23.1240   -32.4100 hc         1 WCV       0.080200
     31 H5          -4.3000    23.8100   -31.3200 hc         1 WCV       0.080200
     32 H6          -7.0470    22.6810   -30.4180 hc         1 WCV       0.080200
     33 H7          -5.7600    23.3470   -29.3150 hc         1 WCV       0.080200
     34 H8         -10.0590    26.8460   -32.2140 h1         1 WCV       0.067200
     35 H9          -9.1700    25.9230   -33.4180 h1         1 WCV       0.067200
     36 H10         -7.4710    27.7320   -33.5770 hc         1 WCV       0.052200
     37 H11         -9.0650    28.3450   -33.9810 hc         1 WCV       0.052200
     38 H12         -7.6220    29.7540   -32.2960 hc         1 WCV       0.050200
     39 H13         -9.3150    29.5090   -31.9560 hc         1 WCV       0.050200
     40 H14         -7.8590    30.2750   -29.7380 ha         1 WCV       0.131000
     41 H15         -7.4400    29.3920   -27.5090 ha         1 WCV       0.170000
     42 H16         -9.4030    31.8360   -24.7220 h1         1 WCV       0.071700
     43 H17         -9.3990    30.5220   -25.8780 h1         1 WCV       0.071700
     44 H18         -5.6760    32.3630   -26.6250 ha         1 WCV       0.167500
     45 H19         -6.8390    25.3480   -24.6680 ha         1 WCV       0.148000
     46 H20         -7.1430    25.7300   -26.9480 hn         1 WCV       0.442800
     47 H21         -8.5480    30.4680   -23.0780 hn         1 WCV       0.452800
@<TRIPOS>BOND
     1     1    20 ar  
     2     1    25 ar  
     3     1    27 1   
     4     2     3 ar  
     5     2    14 ar  
     6     2    28 1   
     7     3     4 ar  
     8     3    21 1   
     9     4    11 1   
    10     4    12 ar  
    11     5     6 1   
    12     5    21 1   
    13     5    26 2   
    14     6     7 1   
    15     6     8 1   
    16     6    29 1   
    17     7     8 1   
    18     7    30 1   
    19     7    31 1   
    20     8    32 1   
    21     8    33 1   
    22     9    10 1   
    23     9    21 1   
    24     9    34 1   
    25     9    35 1   
    26    10    11 1   
    27    10    36 1   
    28    10    37 1   
    29    11    38 1   
    30    11    39 1   
    31    12    13 ar  
    32    12    40 1   
    33    13    14 ar  
    34    13    41 1   
    35    14    22 1   
    36    15    20 ar  
    37    15    22 1   
    38    15    23 ar  
    39    16    23 ar  
    40    16    24 1   
    41    16    25 ar  
    42    17    18 1   
    43    17    24 1   
    44    17    42 1   
    45    17    43 1   
    46    18    19 3   
    47    19    44 1   
    48    20    45 1   
    49    22    46 1   
    50    24    47 1   
@<TRIPOS>SUBSTRUCTURE
     1 WCV         1 TEMP              0 ****  ****    0 ROOT
