@<TRIPOS>MOLECULE
WCW
   31    32     1     0     0
SMALL
No Charge or Current Charge


@<TRIPOS>ATOM
      1 N1          30.5750   -42.3290    49.1740 n8         1 WCW      -0.970200
      2 C1          31.8310   -42.4580    48.3440 c6         1 WCW       0.029200
      3 C2          32.3680   -43.9730    48.2700 c          1 WCW       0.732000
      4 O1          31.8270   -44.7230    47.4640 o          1 WCW      -0.724500
      5 O2          32.8600   -44.4310    49.2950 o          1 WCW      -0.724500
      6 C3          31.5530   -41.8880    46.9170 c6         1 WCW      -0.094900
      7 C4          32.8310   -41.8650    46.0370 c6         1 WCW       0.195800
      8 N2          33.9260   -41.0920    46.6900 nh         1 WCW      -0.777400
      9 C5          34.9350   -40.4680    45.9190 ca         1 WCW       0.335000
     10 C6          35.5610   -39.3000    46.3960 ca         1 WCW      -0.185000
     11 C7          36.5650   -38.6650    45.6460 ca         1 WCW      -0.080500
     12 C8          36.9530   -39.1970    44.4060 ca         1 WCW      -0.183000
     13 C9          36.3380   -40.3600    43.9170 ca         1 WCW      -0.080500
     14 C10         35.3330   -40.9910    44.6710 ca         1 WCW      -0.185000
     15 C11         34.2150   -41.5020    48.0930 c6         1 WCW       0.195800
     16 C12         32.9230   -41.5210    48.9510 c6         1 WCW      -0.094900
     17 H1          30.7280   -42.8180    50.0640 hn         1 WCW       0.370000
     18 H2          30.4590   -41.3480    49.4470 hn         1 WCW       0.370000
     19 H5          31.1520   -40.8680    46.9870 hc         1 WCW       0.037950
     20 H6          30.7780   -42.4810    46.4120 hc         1 WCW       0.037950
     21 H7          32.5720   -41.4110    45.0680 h1         1 WCW       0.054950
     22 H8          33.1620   -42.8950    45.8350 h1         1 WCW       0.054950
     23 H9          35.2580   -38.8750    47.3480 ha         1 WCW       0.111500
     24 H10         37.0390   -37.7620    46.0240 ha         1 WCW       0.092500
     25 H11         37.7310   -38.7070    43.8240 ha         1 WCW       0.097000
     26 H12         36.6400   -40.7740    42.9580 ha         1 WCW       0.092500
     27 H13         34.8750   -41.8960    44.2840 ha         1 WCW       0.111500
     28 H14         34.6810   -42.4980    48.1040 h1         1 WCW       0.054950
     29 H15         34.9310   -40.8120    48.5630 h1         1 WCW       0.054950
     30 H16         33.1760   -41.8370    49.9730 hc         1 WCW       0.037950
     31 H17         32.5400   -40.4950    49.0400 hc         1 WCW       0.037950
@<TRIPOS>BOND
     1     1     2 1   
     2     1    17 1   
     3     1    18 1   
     4     2     3 1   
     5     2     6 1   
     6     2    16 1   
     7     3     4 1   
     8     3     5 1   
     9     6     7 1   
    10     6    19 1   
    11     6    20 1   
    12     7     8 1   
    13     7    21 1   
    14     7    22 1   
    15     8     9 1   
    16     8    15 1   
    17     9    10 ar  
    18     9    14 ar  
    19    10    11 ar  
    20    10    23 1   
    21    11    12 ar  
    22    11    24 1   
    23    12    13 ar  
    24    12    25 1   
    25    13    14 ar  
    26    13    26 1   
    27    14    27 1   
    28    15    16 1   
    29    15    28 1   
    30    15    29 1   
    31    16    30 1   
    32    16    31 1   
@<TRIPOS>SUBSTRUCTURE
     1 WCW         1 TEMP              0 ****  ****    0 ROOT
