@<TRIPOS>MOLECULE
WCW
   31    32     1     0     0
SMALL
abcg2


@<TRIPOS>ATOM
      1 N1          30.7810   -41.3700    48.4280 n8         1 WCW      -0.970200
      2 C1          31.9890   -42.1280    48.0860 c6         1 WCW       0.029200
      3 C2          31.7550   -43.5590    48.6770 c          1 WCW       0.732000
      4 O1          31.3340   -44.4440    47.9070 o          1 WCW      -0.724500
      5 O2          31.9620   -43.6810    49.9010 o          1 WCW      -0.724500
      6 C3          32.1260   -42.1500    46.5630 c6         1 WCW      -0.094900
      7 C4          33.4420   -42.7800    46.1180 c6         1 WCW       0.195800
      8 N2          34.5870   -42.0790    46.6840 nh         1 WCW      -0.777400
      9 C5          35.0440   -40.9230    46.0700 ca         1 WCW       0.335000
     10 C6          35.6680   -39.8860    46.7870 ca         1 WCW      -0.185000
     11 C7          36.1780   -38.7680    46.1440 ca         1 WCW      -0.080500
     12 C8          36.0810   -38.6190    44.7680 ca         1 WCW      -0.183000
     13 C9          35.4600   -39.6300    44.0470 ca         1 WCW      -0.080500
     14 C10         34.9530   -40.7550    44.6750 ca         1 WCW      -0.185000
     15 C11         34.5250   -42.1460    48.1350 c6         1 WCW       0.195800
     16 C12         33.2580   -41.4910    48.6760 c6         1 WCW      -0.094900
     17 H1          30.6850   -41.3430    49.4380 hn         1 WCW       0.370000
     18 H2          30.9090   -40.4040    48.1450 hn         1 WCW       0.370000
     19 H5          32.0840   -41.1210    46.1850 hc         1 WCW       0.037950
     20 H6          31.2880   -42.6850    46.1170 hc         1 WCW       0.037950
     21 H7          33.5050   -42.8220    45.0340 h1         1 WCW       0.054950
     22 H8          33.4890   -43.8160    46.4580 h1         1 WCW       0.054950
     23 H9          35.7590   -39.9330    47.8620 ha         1 WCW       0.111500
     24 H10         36.6490   -37.9970    46.7400 ha         1 WCW       0.092500
     25 H11         36.4750   -37.7420    44.2730 ha         1 WCW       0.097000
     26 H12         35.3670   -39.5510    42.9700 ha         1 WCW       0.092500
     27 H13         34.4930   -41.5120    44.0560 ha         1 WCW       0.111500
     28 H14         34.5390   -43.2050    48.4120 h1         1 WCW       0.054950
     29 H15         35.4230   -41.7190    48.5800 h1         1 WCW       0.054950
     30 H16         33.2350   -41.5570    49.7650 hc         1 WCW       0.037950
     31 H17         33.2730   -40.4250    48.4200 hc         1 WCW       0.037950
@<TRIPOS>BOND
     1     1     2 1   
     2     1    17 1   
     3     1    18 1   
     4     2     3 1   
     5     2     6 1   
     6     2    16 1   
     7     3     4 1   
     8     3     5 1   
     9     6     7 1   
    10     6    19 1   
    11     6    20 1   
    12     7     8 1   
    13     7    21 1   
    14     7    22 1   
    15     8     9 1   
    16     8    15 1   
    17     9    10 ar  
    18     9    14 ar  
    19    10    11 ar  
    20    10    23 1   
    21    11    12 ar  
    22    11    24 1   
    23    12    13 ar  
    24    12    25 1   
    25    13    14 ar  
    26    13    26 1   
    27    14    27 1   
    28    15    16 1   
    29    15    28 1   
    30    15    29 1   
    31    16    30 1   
    32    16    31 1   
@<TRIPOS>SUBSTRUCTURE
     1 WCW         1 TEMP              0 ****  ****    0 ROOT
