@<TRIPOS>MOLECULE
WCX
   68    72     1     0     0
SMALL
No Charge or Current Charge


@<TRIPOS>ATOM
      1 C01        -27.1230    -1.5850    13.9430 c3         1 WCX      -0.091100
      2 C02        -26.5490    -2.1500    15.2540 c3         1 WCX       0.222600
      3 O03        -25.2840    -2.7600    14.9040 os         1 WCX      -0.382100
      4 C04        -24.4790    -3.4450    15.8000 ca         1 WCX       0.189100
      5 C05        -24.9500    -3.7450    17.0930 ca         1 WCX      -0.217000
      6 C06        -24.1420    -4.3990    18.0330 ca         1 WCX       0.074800
      7 N09        -26.4260    -5.8120    20.1650 nc         1 WCX      -0.576100
      8 C08        -25.3120    -5.8660    19.3980 cd         1 WCX       0.440700
      9 N07        -24.6190    -4.6430    19.3190 na         1 WCX      -0.102400
     10 C23        -25.4220    -3.7760    20.0100 ca         1 WCX      -0.102200
     11 C22        -25.2690    -2.3970    20.1970 ca         1 WCX      -0.074000
     12 C21        -26.2550    -1.7270    20.9480 ca         1 WCX      -0.129000
     13 C12        -27.3560    -2.4320    21.4840 ca         1 WCX       0.131100
     14 O13        -28.2930    -1.6960    22.1850 os         1 WCX      -0.366100
     15 C14        -29.3590    -2.3170    22.9420 c6         1 WCX       0.175300
     16 C15        -30.4010    -1.2460    23.3360 c6         1 WCX      -0.086400
     17 C16        -29.8300    -0.2570    24.3800 c6         1 WCX       0.166300
     18 N17        -29.3350    -0.9700    25.5890 n3         1 WCX      -0.720600
     19 C18        -28.8870    -0.0360    26.6450 c3         1 WCX       0.152100
     20 C19        -28.2890    -1.9700    25.2390 c6         1 WCX       0.166300
     21 C20        -28.8190    -3.0070    24.2220 c6         1 WCX      -0.086400
     22 C11        -27.4710    -3.8300    21.2650 ca         1 WCX      -0.144000
     23 C10        -26.4770    -4.4750    20.5180 ca         1 WCX       0.107400
     24 C24        -22.8460    -4.7850    17.6710 ca         1 WCX      -0.167000
     25 C25        -22.3660    -4.5170    16.3800 ca         1 WCX      -0.014000
     26 C26        -23.1660    -3.8440    15.4250 ca         1 WCX      -0.188600
     27 C27        -22.5610    -3.5840    14.0590 c          1 WCX       0.618700
     28 N28        -23.2910    -2.9630    13.1150 nt         1 WCX      -0.600000
     29 O29        -21.4230    -3.9200    13.7760 o          1 WCX      -0.626100
     30 C30        -26.3450    -1.0390    16.3080 ca         1 WCX      -0.078300
     31 C31        -25.1920    -0.2260    16.2020 ca         1 WCX      -0.100000
     32 C32        -24.9290     0.7870    17.1330 ca         1 WCX      -0.078000
     33 C33        -25.8220     1.0120    18.1860 ca         1 WCX      -0.108000
     34 C34        -26.9810     0.2310    18.3020 ca         1 WCX      -0.066000
     35 C35        -27.2690    -0.7990    17.3730 ca         1 WCX      -0.177300
     36 C36        -28.5700    -1.6180    17.5490 c3         1 WCX       0.340300
     37 F39        -29.3080    -1.6470    16.4170 f          1 WCX      -0.110667
     38 F38        -28.3210    -2.9000    17.8930 f          1 WCX      -0.110667
     39 F37        -29.3820    -1.1210    18.5100 f          1 WCX      -0.110667
     40 H011       -28.0860    -1.0930    14.1210 hc         1 WCX       0.058367
     41 H012       -26.4400    -0.8480    13.5050 hc         1 WCX       0.058367
     42 H013       -27.2810    -2.3890    13.2150 hc         1 WCX       0.058367
     43 H02        -27.2370    -2.9200    15.6240 h1         1 WCX       0.072700
     44 H05        -25.9490    -3.4640    17.3940 ha         1 WCX       0.144000
     45 H24        -22.2060    -5.2910    18.3910 ha         1 WCX       0.134000
     46 H11        -28.3070    -4.4100    21.6390 ha         1 WCX       0.135000
     47 H21        -26.1720    -0.6570    21.1120 ha         1 WCX       0.123000
     48 H14        -29.8640    -3.0530    22.3010 h1         1 WCX       0.050700
     49 H151       -30.7310    -0.6990    22.4440 hc         1 WCX       0.059200
     50 H152       -31.2930    -1.7360    23.7490 hc         1 WCX       0.059200
     51 H201       -29.6250    -3.5910    24.6880 hc         1 WCX       0.059200
     52 H202       -28.0250    -3.7230    23.9780 hc         1 WCX       0.059200
     53 H161       -29.0170     0.3240    23.9190 h1         1 WCX       0.036950
     54 H162       -30.6200     0.4570    24.6550 h1         1 WCX       0.036950
     55 H181       -28.5840    -0.5870    27.5460 h1         1 WCX       0.030367
     56 H182       -28.0310     0.5610    26.3030 h1         1 WCX       0.030367
     57 H183       -29.6970     0.6500    26.9250 h1         1 WCX       0.030367
     58 H191       -27.4060    -1.4670    24.8150 h1         1 WCX       0.036950
     59 H192       -27.9540    -2.5020    26.1420 h1         1 WCX       0.036950
     60 H22        -24.4240    -1.8590    19.7730 ha         1 WCX       0.124000
     61 H25        -21.3550    -4.8310    16.1270 ha         1 WCX       0.151000
     62 H281       -22.8910    -2.7900    12.2060 hn         1 WCX       0.326000
     63 H282       -24.2360    -2.6800    13.3360 hn         1 WCX       0.326000
     64 H31        -24.4850    -0.3840    15.3910 ha         1 WCX       0.132000
     65 H32        -24.0330     1.3960    17.0380 ha         1 WCX       0.126000
     66 H33        -25.6200     1.7960    18.9120 ha         1 WCX       0.128000
     67 H34        -27.6530     0.4380    19.1320 ha         1 WCX       0.139000
     68 H08        -24.9720    -6.7350    18.8460 h5         1 WCX       0.067800
@<TRIPOS>BOND
     1     1     2 1   
     2     1    40 1   
     3     1    41 1   
     4     1    42 1   
     5     2     3 1   
     6     2    30 1   
     7     2    43 1   
     8     3     4 1   
     9     4     5 ar  
    10     4    26 ar  
    11     5     6 ar  
    12     5    44 1   
    13     6     9 1   
    14     6    24 ar  
    15     7     8 2   
    16     7    23 1   
    17     8     9 1   
    18     8    68 1   
    19     9    10 1   
    20    10    11 ar  
    21    10    23 ar  
    22    11    12 ar  
    23    11    60 1   
    24    12    13 ar  
    25    12    47 1   
    26    13    14 1   
    27    13    22 ar  
    28    14    15 1   
    29    15    16 1   
    30    15    21 1   
    31    15    48 1   
    32    16    17 1   
    33    16    49 1   
    34    16    50 1   
    35    17    18 1   
    36    17    53 1   
    37    17    54 1   
    38    18    19 1   
    39    18    20 1   
    40    19    55 1   
    41    19    56 1   
    42    19    57 1   
    43    20    21 1   
    44    20    58 1   
    45    20    59 1   
    46    21    51 1   
    47    21    52 1   
    48    22    23 ar  
    49    22    46 1   
    50    24    25 ar  
    51    24    45 1   
    52    25    26 ar  
    53    25    61 1   
    54    26    27 1   
    55    27    28 1   
    56    27    29 2   
    57    28    62 1   
    58    28    63 1   
    59    30    31 ar  
    60    30    35 ar  
    61    31    32 ar  
    62    31    64 1   
    63    32    33 ar  
    64    32    65 1   
    65    33    34 ar  
    66    33    66 1   
    67    34    35 ar  
    68    34    67 1   
    69    35    36 1   
    70    36    37 1   
    71    36    38 1   
    72    36    39 1   
@<TRIPOS>SUBSTRUCTURE
     1 WCX         1 TEMP              0 ****  ****    0 ROOT
