@<TRIPOS>MOLECULE
WCX
   68    72     1     0     0
SMALL
abcg2


@<TRIPOS>ATOM
      1 C01        -26.4540    -1.2110    13.5670 c3         1 WCX      -0.091100
      2 C02        -26.2210    -1.8790    14.9140 c3         1 WCX       0.222600
      3 O03        -24.9310    -2.5160    14.7930 os         1 WCX      -0.382100
      4 C04        -24.4530    -3.3440    15.7570 ca         1 WCX       0.189100
      5 C05        -25.2180    -3.6990    16.8630 ca         1 WCX      -0.217000
      6 C06        -24.6950    -4.5400    17.8370 ca         1 WCX       0.074800
      7 N09        -26.5000    -6.0820    20.5400 nc         1 WCX      -0.576100
      8 C08        -25.6830    -6.0900    19.5160 cd         1 WCX       0.440700
      9 N07        -25.4840    -4.8460    18.9690 na         1 WCX      -0.102400
     10 C23        -26.2470    -3.9590    19.7280 ca         1 WCX      -0.102200
     11 C22        -26.4080    -2.5770    19.6970 ca         1 WCX      -0.074000
     12 C21        -27.2390    -2.0170    20.6490 ca         1 WCX      -0.129000
     13 C12        -27.8960    -2.8040    21.6200 ca         1 WCX       0.131100
     14 O13        -28.7070    -2.1010    22.4590 os         1 WCX      -0.366100
     15 C14        -29.2850    -2.7410    23.6160 c6         1 WCX       0.175300
     16 C15        -30.3780    -1.8080    24.1170 c6         1 WCX      -0.086400
     17 C16        -29.8050    -0.5290    24.7180 c6         1 WCX       0.166300
     18 N17        -28.8480    -0.8280    25.7820 n3         1 WCX      -0.720600
     19 C18        -28.3600     0.3920    26.4050 c3         1 WCX       0.152100
     20 C19        -27.7410    -1.6380    25.2780 c6         1 WCX       0.166300
     21 C20        -28.2350    -2.9600    24.7020 c6         1 WCX      -0.086400
     22 C11        -27.7120    -4.1810    21.6660 ca         1 WCX      -0.144000
     23 C10        -26.8720    -4.7530    20.7050 ca         1 WCX       0.107400
     24 C24        -23.4150    -5.0670    17.7060 ca         1 WCX      -0.167000
     25 C25        -22.6710    -4.7230    16.5920 ca         1 WCX      -0.014000
     26 C26        -23.1450    -3.8540    15.6070 ca         1 WCX      -0.188600
     27 C27        -22.1910    -3.5450    14.4860 c          1 WCX       0.618700
     28 N28        -22.5870    -2.6930    13.5240 nt         1 WCX      -0.600000
     29 O29        -21.0690    -4.0610    14.4640 o          1 WCX      -0.626100
     30 C30        -26.2290    -0.8740    16.0530 ca         1 WCX      -0.078300
     31 C31        -25.0590    -0.1660    16.3190 ca         1 WCX      -0.100000
     32 C32        -25.0060     0.7910    17.3240 ca         1 WCX      -0.078000
     33 C33        -26.1370     1.0650    18.0820 ca         1 WCX      -0.108000
     34 C34        -27.3130     0.3750    17.8290 ca         1 WCX      -0.066000
     35 C35        -27.3650    -0.5920    16.8270 ca         1 WCX      -0.177300
     36 C36        -28.6590    -1.3360    16.6270 c3         1 WCX       0.340300
     37 F39        -29.1210    -1.2500    15.3550 f          1 WCX      -0.110667
     38 F38        -28.5390    -2.6640    16.8920 f          1 WCX      -0.110667
     39 F37        -29.6470    -0.8850    17.4210 f          1 WCX      -0.110667
     40 H011       -27.4140    -0.6990    13.5670 hc         1 WCX       0.058367
     41 H012       -25.6680    -0.4800    13.3730 hc         1 WCX       0.058367
     42 H013       -26.4520    -1.9600    12.7760 hc         1 WCX       0.058367
     43 H02        -26.9660    -2.6590    15.0680 h1         1 WCX       0.072700
     44 H05        -26.2270    -3.3430    16.9730 ha         1 WCX       0.144000
     45 H24        -23.0040    -5.7100    18.4720 ha         1 WCX       0.134000
     46 H11        -28.1830    -4.8060    22.4100 ha         1 WCX       0.135000
     47 H21        -27.4040    -0.9480    20.6640 ha         1 WCX       0.123000
     48 H14        -29.7280    -3.6920    23.3090 h1         1 WCX       0.050700
     49 H151       -31.0580    -1.5660    23.2990 hc         1 WCX       0.059200
     50 H152       -30.9510    -2.3420    24.8790 hc         1 WCX       0.059200
     51 H201       -28.6900    -3.5580    25.4950 hc         1 WCX       0.059200
     52 H202       -27.3900    -3.5280    24.3100 hc         1 WCX       0.059200
     53 H161       -29.3320     0.0760    23.9260 h1         1 WCX       0.036950
     54 H162       -30.6130     0.0720    25.1410 h1         1 WCX       0.036950
     55 H181       -27.6860     0.1450    27.2260 h1         1 WCX       0.030367
     56 H182       -27.8140     1.0370    25.6950 h1         1 WCX       0.030367
     57 H183       -29.1990     0.9640    26.8050 h1         1 WCX       0.030367
     58 H191       -27.1730    -1.0880    24.5070 h1         1 WCX       0.036950
     59 H192       -27.0520    -1.8320    26.1030 h1         1 WCX       0.036950
     60 H22        -25.9100    -1.9540    18.9690 ha         1 WCX       0.124000
     61 H25        -21.6690    -5.1100    16.4730 ha         1 WCX       0.151000
     62 H281       -21.9420    -2.4820    12.7790 hn         1 WCX       0.326000
     63 H282       -23.5010    -2.2720    13.5390 hn         1 WCX       0.326000
     64 H31        -24.1750    -0.3770    15.7340 ha         1 WCX       0.132000
     65 H32        -24.0810     1.3200    17.5120 ha         1 WCX       0.126000
     66 H33        -26.1060     1.8060    18.8690 ha         1 WCX       0.128000
     67 H34        -28.1910     0.5780    18.4240 ha         1 WCX       0.139000
     68 H08        -25.2100    -6.9630    19.0930 h5         1 WCX       0.067800
@<TRIPOS>BOND
     1     1     2 1   
     2     1    40 1   
     3     1    41 1   
     4     1    42 1   
     5     2     3 1   
     6     2    30 1   
     7     2    43 1   
     8     3     4 1   
     9     4     5 ar  
    10     4    26 ar  
    11     5     6 ar  
    12     5    44 1   
    13     6     9 1   
    14     6    24 ar  
    15     7     8 2   
    16     7    23 1   
    17     8     9 1   
    18     8    68 1   
    19     9    10 1   
    20    10    11 ar  
    21    10    23 ar  
    22    11    12 ar  
    23    11    60 1   
    24    12    13 ar  
    25    12    47 1   
    26    13    14 1   
    27    13    22 ar  
    28    14    15 1   
    29    15    16 1   
    30    15    21 1   
    31    15    48 1   
    32    16    17 1   
    33    16    49 1   
    34    16    50 1   
    35    17    18 1   
    36    17    53 1   
    37    17    54 1   
    38    18    19 1   
    39    18    20 1   
    40    19    55 1   
    41    19    56 1   
    42    19    57 1   
    43    20    21 1   
    44    20    58 1   
    45    20    59 1   
    46    21    51 1   
    47    21    52 1   
    48    22    23 ar  
    49    22    46 1   
    50    24    25 ar  
    51    24    45 1   
    52    25    26 ar  
    53    25    61 1   
    54    26    27 1   
    55    27    28 1   
    56    27    29 2   
    57    28    62 1   
    58    28    63 1   
    59    30    31 ar  
    60    30    35 ar  
    61    31    32 ar  
    62    31    64 1   
    63    32    33 ar  
    64    32    65 1   
    65    33    34 ar  
    66    33    66 1   
    67    34    35 ar  
    68    34    67 1   
    69    35    36 1   
    70    36    37 1   
    71    36    38 1   
    72    36    39 1   
@<TRIPOS>SUBSTRUCTURE
     1 WCX         1 TEMP              0 ****  ****    0 ROOT
