@<TRIPOS>MOLECULE
WCY
   50    52     1     0     0
SMALL
abcg2


@<TRIPOS>ATOM
      1 C33        204.6540   207.9740   252.7610 cc         1 WCY       0.412300
      2 C4         191.9490   211.3530   256.8630 ca         1 WCY      -0.011000
      3 C7         192.9210   210.3460   259.2490 ca         1 WCY      -0.208800
      4 C6         191.8190   209.7510   258.6610 ca         1 WCY      -0.004000
      5 C9         193.5070   209.8180   260.5230 c3         1 WCY       0.359800
      6 C21        197.2080   210.9490   254.0640 ca         1 WCY       0.016600
      7 C8         193.5300   211.4460   258.6550 ca         1 WCY      -0.011000
      8 C18        195.6200   212.0700   255.5530 cs         1 WCY       0.480400
      9 C26        198.4370   211.5840   254.2060 ca         1 WCY      -0.069000
     10 C1         192.8170   214.2730   256.4730 c3         1 WCY      -0.105100
     11 C2         193.7570   213.1210   256.7950 c3         1 WCY       0.167000
     12 C22        197.1750   209.6420   253.6040 ca         1 WCY      -0.069000
     13 C23        198.3430   208.9540   253.3010 ca         1 WCY      -0.142000
     14 C24        199.5770   209.5790   253.4750 ca         1 WCY      -0.008000
     15 C25        199.6040   210.9040   253.9240 ca         1 WCY      -0.142000
     16 C28        201.0850   207.6800   252.9520 c          1 WCY       0.544600
     17 C3         193.0540   211.9530   257.4580 ca         1 WCY      -0.124300
     18 C30        202.5370   207.4150   252.7940 cd         1 WCY       0.204500
     19 C31        203.0540   206.1870   252.5150 cc         1 WCY      -0.201000
     20 C5         191.3280   210.2710   257.4670 ca         1 WCY      -0.208800
     21 F10        192.8260   208.7810   261.0150 f          1 WCY      -0.109667
     22 F11        194.7720   209.4110   260.3480 f          1 WCY      -0.109667
     23 F12        193.5400   210.7600   261.4750 f          1 WCY      -0.109667
     24 F14        189.3030   209.0930   257.6920 f          1 WCY      -0.109667
     25 F15        189.4610   210.4590   256.0390 f          1 WCY      -0.109667
     26 F16        190.5470   208.6080   256.0050 f          1 WCY      -0.109667
     27 N17        194.4320   212.6900   255.5830 ns         1 WCY      -0.458900
     28 N27        200.8090   208.9780   253.2190 ns         1 WCY      -0.131000
     29 N34        203.4540   208.4170   252.9310 nd         1 WCY      -0.641000
     30 O29        200.2640   206.7870   252.8460 o          1 WCY      -0.579100
     31 S19        196.5700   211.8610   256.9230 s          1 WCY      -0.653400
     32 S32        204.7510   206.2910   252.4200 ss         1 WCY       0.010600
     33 H1         205.5430   208.5850   252.8230 h5         1 WCY       0.059100
     34 H2         191.5720   211.7420   255.9250 ha         1 WCY       0.140000
     35 H3         191.3410   208.8970   259.1220 ha         1 WCY       0.148000
     36 H4         194.3920   211.9130   259.1150 ha         1 WCY       0.140000
     37 H5         198.4830   212.6110   254.5410 ha         1 WCY       0.123500
     38 H6         192.3100   214.6030   257.3780 hc         1 WCY       0.050700
     39 H7         193.3780   215.1150   256.0690 hc         1 WCY       0.050700
     40 H8         192.0530   213.9950   255.7450 hc         1 WCY       0.050700
     41 H9         194.5270   213.4830   257.4780 h1         1 WCY       0.106700
     42 H10        196.2230   209.1410   253.4820 ha         1 WCY       0.123500
     43 H11        198.2760   207.9410   252.9420 ha         1 WCY       0.134500
     44 H12        200.5550   211.4090   254.0490 ha         1 WCY       0.134500
     45 H13        202.5280   205.2570   252.3660 h4         1 WCY       0.183000
     46 H14        193.9030   212.7660   254.7250 hn         1 WCY       0.301500
     47 H15        195.3190   211.6370   253.5880 hn         1 WCY       0.307500
     48 H16        201.6190   209.5800   253.3010 hn         1 WCY       0.181000
     49 N20        196.0000   211.6280   254.3350 ns         1 WCY      -0.367100
     50 C13        190.1570   209.6120   256.8030 c3         1 WCY       0.359800
@<TRIPOS>BOND
     1     1    29 2   
     2     1    32 1   
     3     1    33 1   
     4     2    17 ar  
     5     2    20 ar  
     6     2    34 1   
     7     3     4 ar  
     8     3     5 1   
     9     3     7 ar  
    10     4    20 ar  
    11     4    35 1   
    12     5    21 1   
    13     5    22 1   
    14     5    23 1   
    15     6     9 ar  
    16     6    12 ar  
    17     6    49 1   
    18     7    17 ar  
    19     7    36 1   
    20     8    27 1   
    21     8    31 2   
    22     8    49 1   
    23     9    15 ar  
    24     9    37 1   
    25    10    11 1   
    26    10    38 1   
    27    10    39 1   
    28    10    40 1   
    29    11    17 1   
    30    11    27 1   
    31    11    41 1   
    32    12    13 ar  
    33    12    42 1   
    34    13    14 ar  
    35    13    43 1   
    36    14    15 ar  
    37    14    28 1   
    38    15    44 1   
    39    16    18 1   
    40    16    28 1   
    41    16    30 2   
    42    18    19 2   
    43    18    29 1   
    44    19    32 1   
    45    19    45 1   
    46    20    50 1   
    47    24    50 1   
    48    25    50 1   
    49    26    50 1   
    50    27    46 1   
    51    28    48 1   
    52    47    49 1   
@<TRIPOS>SUBSTRUCTURE
     1 WCY         1 TEMP              0 ****  ****    0 ROOT
