@<TRIPOS>MOLECULE
WCY
   50    52     1     0     0
SMALL
No Charge or Current Charge


@<TRIPOS>ATOM
      1 C33        205.1370   207.9530   252.5040 cc         1 WCY       0.412300
      2 C4         191.7610   211.2970   256.9390 ca         1 WCY      -0.011000
      3 C7         192.3820   210.8370   259.6510 ca         1 WCY      -0.208800
      4 C6         191.3040   210.1610   259.0420 ca         1 WCY      -0.004000
      5 C9         192.7340   210.5680   261.1180 c3         1 WCY       0.359800
      6 C21        197.4280   210.5560   254.3520 ca         1 WCY       0.016600
      7 C8         193.1500   211.7380   258.8860 ca         1 WCY      -0.011000
      8 C18        195.7710   211.7990   255.8630 cs         1 WCY       0.480400
      9 C26        198.6680   211.0330   254.8210 ca         1 WCY      -0.069000
     10 C1         192.8630   214.0650   256.0560 c3         1 WCY      -0.105100
     11 C2         193.6960   212.9540   256.7240 c3         1 WCY       0.167000
     12 C22        197.4140   209.5030   253.4200 ca         1 WCY      -0.069000
     13 C23        198.6140   208.9110   252.9850 ca         1 WCY      -0.142000
     14 C24        199.8560   209.3750   253.4690 ca         1 WCY      -0.008000
     15 C25        199.8680   210.4430   254.3850 ca         1 WCY      -0.142000
     16 C28        201.4570   207.7840   252.2290 c          1 WCY       0.544600
     17 C3         192.8410   211.9790   257.5330 ca         1 WCY      -0.124300
     18 C30        202.9520   207.6140   252.1450 cd         1 WCY       0.204500
     19 C31        203.4890   206.6190   251.3500 cc         1 WCY      -0.201000
     20 C5         190.9810   210.3920   257.6880 ca         1 WCY      -0.208800
     21 F10        191.6450   210.2630   261.8600 f          1 WCY      -0.109667
     22 F11        193.5940   209.5320   261.2340 f          1 WCY      -0.109667
     23 F12        193.3170   211.6350   261.7120 f          1 WCY      -0.109667
     24 F14        188.8350   209.3410   257.9100 f          1 WCY      -0.109667
     25 F15        189.2390   210.3590   256.0390 f          1 WCY      -0.109667
     26 F16        190.2310   208.4770   256.4850 f          1 WCY      -0.109667
     27 N17        194.4830   212.2330   255.7240 ns         1 WCY      -0.458900
     28 N27        201.1090   208.8300   253.0750 ns         1 WCY      -0.131000
     29 N34        203.9170   208.3820   252.8110 nd         1 WCY      -0.641000
     30 O29        200.6500   207.0800   251.6230 o          1 WCY      -0.579100
     31 S19        196.6620   211.9930   257.2670 s          1 WCY      -0.653400
     32 S32        205.2290   206.6060   251.4040 ss         1 WCY       0.010600
     33 H1         206.0540   208.3810   252.8890 h5         1 WCY       0.059100
     34 H2         191.5350   211.4630   255.8880 ha         1 WCY       0.140000
     35 H3         190.7210   209.4460   259.6210 ha         1 WCY       0.148000
     36 H4         193.9980   212.2500   259.3380 ha         1 WCY       0.140000
     37 H5         198.7180   211.8730   255.5070 ha         1 WCY       0.123500
     38 H6         192.2710   214.6010   256.8070 hc         1 WCY       0.050700
     39 H7         193.5220   214.7900   255.5630 hc         1 WCY       0.050700
     40 H8         192.1790   213.6590   255.3030 hc         1 WCY       0.050700
     41 H9         194.3870   213.4600   257.4120 h1         1 WCY       0.106700
     42 H10        196.4680   209.1310   253.0350 ha         1 WCY       0.123500
     43 H11        198.5530   208.0970   252.2700 ha         1 WCY       0.134500
     44 H12        200.8140   210.8260   254.7610 ha         1 WCY       0.134500
     45 H13        202.9690   205.8950   250.7370 h4         1 WCY       0.183000
     46 H14        194.0290   212.0490   254.8390 hn         1 WCY       0.301500
     47 H15        195.4720   211.0270   254.0370 hn         1 WCY       0.307500
     48 H16        201.9090   209.2930   253.4880 hn         1 WCY       0.181000
     49 N20        196.1900   211.1260   254.7440 ns         1 WCY      -0.367100
     50 C13        189.8180   209.6430   257.0300 c3         1 WCY       0.359800
@<TRIPOS>BOND
     1     1    29 2   
     2     1    32 1   
     3     1    33 1   
     4     2    17 ar  
     5     2    20 ar  
     6     2    34 1   
     7     3     4 ar  
     8     3     5 1   
     9     3     7 ar  
    10     4    20 ar  
    11     4    35 1   
    12     5    21 1   
    13     5    22 1   
    14     5    23 1   
    15     6     9 ar  
    16     6    12 ar  
    17     6    49 1   
    18     7    17 ar  
    19     7    36 1   
    20     8    27 1   
    21     8    31 2   
    22     8    49 1   
    23     9    15 ar  
    24     9    37 1   
    25    10    11 1   
    26    10    38 1   
    27    10    39 1   
    28    10    40 1   
    29    11    17 1   
    30    11    27 1   
    31    11    41 1   
    32    12    13 ar  
    33    12    42 1   
    34    13    14 ar  
    35    13    43 1   
    36    14    15 ar  
    37    14    28 1   
    38    15    44 1   
    39    16    18 1   
    40    16    28 1   
    41    16    30 2   
    42    18    19 2   
    43    18    29 1   
    44    19    32 1   
    45    19    45 1   
    46    20    50 1   
    47    24    50 1   
    48    25    50 1   
    49    26    50 1   
    50    27    46 1   
    51    28    48 1   
    52    47    49 1   
@<TRIPOS>SUBSTRUCTURE
     1 WCY         1 TEMP              0 ****  ****    0 ROOT
