@<TRIPOS>MOLECULE
WD0
   32    33     1     0     0
SMALL
abcg2


@<TRIPOS>ATOM
      1 N1          12.2610     0.8960   -12.2600 n7         1 WD0      -0.832400
      2 C7          11.3840     0.5080   -11.1370 c5         1 WD0       0.228900
      3 C8          10.2130     1.4790   -11.0610 c2         1 WD0      -0.013600
      4 C9           9.0560     1.1480   -10.4930 c2         1 WD0      -0.181200
      5 C1           9.2430     1.6260    -5.6320 c3         1 WD0       0.133600
      6 C5           9.7300    -1.2500   -10.6030 c2         1 WD0      -0.204200
      7 C6          10.8800    -0.9110   -11.1740 c2         1 WD0      -0.198200
      8 C4           8.8230    -0.2330    -9.9460 c6         1 WD0      -0.086300
      9 C3           8.9700    -0.3920    -8.4180 c          1 WD0       0.613100
     10 C2          10.0010     0.5440    -6.3780 c3         1 WD0       0.101000
     11 N            9.7200     0.5360    -7.8030 ns         1 WD0      -0.497900
     12 O            7.8550     1.3430    -5.6700 os         1 WD0      -0.448000
     13 C            7.0800     2.3530    -5.0460 c3         1 WD0       0.143900
     14 S           10.5920     2.9610   -11.9350 ss         1 WD0      -0.429600
     15 C10         11.6240     1.8970   -13.0790 c5         1 WD0       0.328800
     16 H1          13.1170     1.2810   -11.8810 hn         1 WD0       0.422000
     17 H3           8.2270     1.8450   -10.4630 ha         1 WD0       0.198000
     18 H4           9.5970     1.6600    -4.5930 h1         1 WD0       0.025700
     19 H5           9.4380     2.6080    -6.0860 h1         1 WD0       0.025700
     20 H6           9.4080    -2.2840   -10.5700 ha         1 WD0       0.199000
     21 H7          11.5280    -1.6520   -11.6260 ha         1 WD0       0.197000
     22 H8           7.7850    -0.5120   -10.1430 hc         1 WD0       0.097700
     23 H9          11.0700     0.7020    -6.2280 h1         1 WD0       0.067700
     24 H10          9.7390    -0.4350    -5.9810 h1         1 WD0       0.067700
     25 H11         10.0590     1.3070    -8.3580 hn         1 WD0       0.315500
     26 H12          6.0340     2.0590    -5.1290 h1         1 WD0       0.030367
     27 H13          7.3440     2.4560    -3.9860 h1         1 WD0       0.030367
     28 H14          7.2250     3.3210    -5.5390 h1         1 WD0       0.030367
     29 H15         12.3490     2.5160   -13.6000 h2         1 WD0       0.084200
     30 H16         10.9310     1.4490   -13.7890 h2         1 WD0       0.084200
     31 H2          11.9760     0.6180   -10.2200 h1         1 WD0       0.065700
     32 O1           8.4570    -1.3540    -7.8470 o          1 WD0      -0.597100
@<TRIPOS>BOND
     1     1     2 1   
     2     1    15 1   
     3     1    16 1   
     4     2     3 1   
     5     2     7 1   
     6     2    31 1   
     7     3     4 2   
     8     3    14 1   
     9     4     8 1   
    10     4    17 1   
    11     5    10 1   
    12     5    12 1   
    13     5    18 1   
    14     5    19 1   
    15     6     7 2   
    16     6     8 1   
    17     6    20 1   
    18     7    21 1   
    19     8     9 1   
    20     8    22 1   
    21     9    11 1   
    22     9    32 2   
    23    10    11 1   
    24    10    23 1   
    25    10    24 1   
    26    11    25 1   
    27    12    13 1   
    28    13    26 1   
    29    13    27 1   
    30    13    28 1   
    31    14    15 1   
    32    15    29 1   
    33    15    30 1   
@<TRIPOS>SUBSTRUCTURE
     1 WD0         1 TEMP              0 ****  ****    0 ROOT
