@<TRIPOS>MOLECULE
WD0
   32    33     1     0     0
SMALL
No Charge or Current Charge


@<TRIPOS>ATOM
      1 N1          12.0470     1.6400   -11.6390 n7         1 WD0      -0.832400
      2 C7          11.1840     0.9510   -10.6340 c5         1 WD0       0.228900
      3 C8           9.8070     1.5400   -10.8560 c2         1 WD0      -0.013600
      4 C9           8.7200     0.8180   -10.5440 c2         1 WD0      -0.181200
      5 C1           9.4880     1.3250    -5.7610 c3         1 WD0       0.133600
      6 C5          10.1170    -1.2610   -10.5670 c2         1 WD0      -0.204200
      7 C6          11.2090    -0.5430   -10.9080 c2         1 WD0      -0.198200
      8 C4           8.8390    -0.6110   -10.0080 c6         1 WD0      -0.086300
      9 C3           8.6950    -0.7080    -8.4710 c          1 WD0       0.613100
     10 C2           9.7960    -0.1000    -6.2770 c3         1 WD0       0.101000
     11 N            9.7490    -0.2020    -7.7440 ns         1 WD0      -0.497900
     12 O            8.1530     1.6910    -6.1570 os         1 WD0      -0.448000
     13 C            7.7520     3.0110    -5.7540 c3         1 WD0       0.143900
     14 S            9.7790     2.9350   -11.9190 ss         1 WD0      -0.429600
     15 C10         11.1870     2.0850   -12.7760 c5         1 WD0       0.328800
     16 H1          12.3910     2.5000   -11.2020 hn         1 WD0       0.422000
     17 H3           7.7220     1.1670   -10.8140 ha         1 WD0       0.198000
     18 H4           9.5840     1.3400    -4.6680 h1         1 WD0       0.025700
     19 H5          10.2220     2.0270    -6.1790 h1         1 WD0       0.025700
     20 H6          10.0910    -2.3440   -10.7160 ha         1 WD0       0.199000
     21 H7          12.0950    -1.0240   -11.3230 ha         1 WD0       0.197000
     22 H8           7.9860    -1.1690   -10.4180 hc         1 WD0       0.097700
     23 H9          10.8020    -0.3870    -5.9430 h1         1 WD0       0.067700
     24 H10          9.0870    -0.8080    -5.8290 h1         1 WD0       0.067700
     25 H11         10.5180     0.1750    -8.2810 hn         1 WD0       0.315500
     26 H12          6.7270     3.2170    -6.0880 h1         1 WD0       0.030367
     27 H13          7.7820     3.1120    -4.6610 h1         1 WD0       0.030367
     28 H14          8.4130     3.7700    -6.1920 h1         1 WD0       0.030367
     29 H15         11.7060     2.7840   -13.4460 h2         1 WD0       0.084200
     30 H16         10.7970     1.2250   -13.3380 h2         1 WD0       0.084200
     31 H2          11.5500     1.1590    -9.6180 h1         1 WD0       0.065700
     32 O1           7.7200    -1.2250    -7.9420 o          1 WD0      -0.597100
@<TRIPOS>BOND
     1     1     2 1   
     2     1    15 1   
     3     1    16 1   
     4     2     3 1   
     5     2     7 1   
     6     2    31 1   
     7     3     4 2   
     8     3    14 1   
     9     4     8 1   
    10     4    17 1   
    11     5    10 1   
    12     5    12 1   
    13     5    18 1   
    14     5    19 1   
    15     6     7 2   
    16     6     8 1   
    17     6    20 1   
    18     7    21 1   
    19     8     9 1   
    20     8    22 1   
    21     9    11 1   
    22     9    32 2   
    23    10    11 1   
    24    10    23 1   
    25    10    24 1   
    26    11    25 1   
    27    12    13 1   
    28    13    26 1   
    29    13    27 1   
    30    13    28 1   
    31    14    15 1   
    32    15    29 1   
    33    15    30 1   
@<TRIPOS>SUBSTRUCTURE
     1 WD0         1 TEMP              0 ****  ****    0 ROOT
