@<TRIPOS>MOLECULE
WD1
   31    31     1     0     0
SMALL
abcg2


@<TRIPOS>ATOM
      1 O1           4.8790    -0.6200    17.3350 oh         1 WD1      -0.665000
      2 C1           3.8940    -0.7940    18.3110 c3         1 WD1       0.386300
      3 O2           3.9430    -2.0690    18.8960 oh         1 WD1      -0.665000
      4 C2           2.5260    -0.6370    17.6730 c3         1 WD1       0.178800
      5 N1           2.2810    -1.6200    16.6400 n7         1 WD1      -0.848400
      6 C3           1.0540    -1.4110    15.8970 c3         1 WD1       0.159800
      7 C4          -0.2520    -1.3660    16.7020 c6         1 WD1      -0.095700
      8 C5          -1.4560    -1.2320    15.7510 c6         1 WD1      -0.070400
      9 C6          -2.0560    -2.5930    15.4160 c6         1 WD1      -0.070400
     10 C7          -2.6090    -3.2760    16.6730 c6         1 WD1      -0.104400
     11 C8          -1.8120    -2.9440    17.9290 c6         1 WD1       0.197300
     12 F1          -2.3920    -1.8350    18.5750 f          1 WD1      -0.278000
     13 C9          -0.3740    -2.6050    17.6050 c6         1 WD1      -0.102400
     14 H1           5.7150    -0.4190    17.7680 ho         1 WD1       0.437500
     15 H2           4.7020    -2.1190    19.4870 ho         1 WD1       0.437500
     16 H3           2.4750     0.3600    17.2260 h1         1 WD1       0.040700
     17 H4           1.7850    -0.6470    18.4860 h1         1 WD1       0.040700
     18 H5           2.2820    -2.5480    17.0440 hn         1 WD1       0.424000
     19 H7           1.1470    -0.4740    15.3360 h1         1 WD1       0.051700
     20 H8           0.9820    -2.2080    15.1490 h1         1 WD1       0.051700
     21 H9          -0.2290    -0.4780    17.3400 hc         1 WD1       0.053700
     22 H10         -1.1470    -0.7180    14.8370 hc         1 WD1       0.046200
     23 H11         -2.2270    -0.6040    16.2030 hc         1 WD1       0.046200
     24 H12         -2.8470    -2.4920    14.6710 hc         1 WD1       0.041200
     25 H13         -1.2900    -3.2250    14.9560 hc         1 WD1       0.041200
     26 H14         -3.6510    -2.9940    16.8380 hc         1 WD1       0.051200
     27 H15         -2.6050    -4.3590    16.5380 hc         1 WD1       0.051200
     28 H16         -1.8660    -3.7690    18.6420 h1         1 WD1       0.050700
     29 H17          0.0510    -3.4840    17.1090 hc         1 WD1       0.050700
     30 H18          0.2010    -2.4700    18.5260 hc         1 WD1       0.050700
     31 H19          3.9960    -0.0240    19.0880 h2         1 WD1       0.008700
@<TRIPOS>BOND
     1     1     2 1   
     2     1    14 1   
     3     2     3 1   
     4     2     4 1   
     5     2    31 1   
     6     3    15 1   
     7     4     5 1   
     8     4    16 1   
     9     4    17 1   
    10     5     6 1   
    11     5    18 1   
    12     6     7 1   
    13     6    19 1   
    14     6    20 1   
    15     7     8 1   
    16     7    13 1   
    17     7    21 1   
    18     8     9 1   
    19     8    22 1   
    20     8    23 1   
    21     9    10 1   
    22     9    24 1   
    23     9    25 1   
    24    10    11 1   
    25    10    26 1   
    26    10    27 1   
    27    11    12 1   
    28    11    13 1   
    29    11    28 1   
    30    13    29 1   
    31    13    30 1   
@<TRIPOS>SUBSTRUCTURE
     1 WD1         1 TEMP              0 ****  ****    0 ROOT
