@<TRIPOS>MOLECULE
WD1
   31    31     1     0     0
SMALL
No Charge or Current Charge


@<TRIPOS>ATOM
      1 O1           5.1120    -1.0180    17.6230 oh         1 WD1      -0.665000
      2 C1           3.9200    -0.7520    18.3500 c3         1 WD1       0.386300
      3 O2           3.6370    -1.9310    19.0910 oh         1 WD1      -0.665000
      4 C2           2.7220    -0.3910    17.3950 c3         1 WD1       0.178800
      5 N1           2.3030    -1.5200    16.5090 n7         1 WD1      -0.848400
      6 C3           1.0390    -1.3530    15.7610 c3         1 WD1       0.159800
      7 C4          -0.2380    -1.4270    16.6580 c6         1 WD1      -0.095700
      8 C5          -1.5410    -1.2240    15.8180 c6         1 WD1      -0.070400
      9 C6          -2.2170    -2.5670    15.4550 c6         1 WD1      -0.070400
     10 C7          -2.6660    -3.3380    16.7310 c6         1 WD1      -0.104400
     11 C8          -1.7090    -3.1390    17.9440 c6         1 WD1       0.197300
     12 F1          -2.2190    -2.1020    18.7550 f          1 WD1      -0.278000
     13 C9          -0.2770    -2.7480    17.5020 c6         1 WD1      -0.102400
     14 H1           5.8520    -0.7800    18.2180 ho         1 WD1       0.437500
     15 H2           4.1270    -1.8460    19.9350 ho         1 WD1       0.437500
     16 H3           2.9980     0.4850    16.7930 h1         1 WD1       0.040700
     17 H4           1.8880    -0.0810    18.0380 h1         1 WD1       0.040700
     18 H5           2.2250    -2.3500    17.1080 hn         1 WD1       0.424000
     19 H7           1.0400    -0.3950    15.2210 h1         1 WD1       0.051700
     20 H8           0.9570    -2.1450    15.0030 h1         1 WD1       0.051700
     21 H9          -0.1790    -0.5770    17.3520 hc         1 WD1       0.053700
     22 H10         -1.3280    -0.6520    14.9050 hc         1 WD1       0.046200
     23 H11         -2.2530    -0.6130    16.3900 hc         1 WD1       0.046200
     24 H12         -3.0840    -2.3920    14.8030 hc         1 WD1       0.041200
     25 H13         -1.5150    -3.1830    14.8750 hc         1 WD1       0.041200
     26 H14         -3.6820    -3.0320    17.0140 hc         1 WD1       0.051200
     27 H15         -2.7310    -4.4080    16.4930 hc         1 WD1       0.051200
     28 H16         -1.6880    -4.0480    18.5620 h1         1 WD1       0.050700
     29 H17          0.1380    -3.5800    16.9150 hc         1 WD1       0.050700
     30 H18          0.3680    -2.6480    18.3860 hc         1 WD1       0.050700
     31 H19          4.1000     0.0800    19.0420 h2         1 WD1       0.008700
@<TRIPOS>BOND
     1     1     2 1   
     2     1    14 1   
     3     2     3 1   
     4     2     4 1   
     5     2    31 1   
     6     3    15 1   
     7     4     5 1   
     8     4    16 1   
     9     4    17 1   
    10     5     6 1   
    11     5    18 1   
    12     6     7 1   
    13     6    19 1   
    14     6    20 1   
    15     7     8 1   
    16     7    13 1   
    17     7    21 1   
    18     8     9 1   
    19     8    22 1   
    20     8    23 1   
    21     9    10 1   
    22     9    24 1   
    23     9    25 1   
    24    10    11 1   
    25    10    26 1   
    26    10    27 1   
    27    11    12 1   
    28    11    13 1   
    29    11    28 1   
    30    13    29 1   
    31    13    30 1   
@<TRIPOS>SUBSTRUCTURE
     1 WD1         1 TEMP              0 ****  ****    0 ROOT
