@<TRIPOS>MOLECULE
WD2
   28    29     1     0     0
SMALL
No Charge or Current Charge


@<TRIPOS>ATOM
      1 F2           9.1030    34.2190   -61.2270 f          1 WD2      -0.111333
      2 C9           8.8170    34.1120   -59.9090 c3         1 WD2       0.353300
      3 F            7.6380    34.7470   -59.7160 f          1 WD2      -0.111333
      4 F1           9.7580    34.8160   -59.2410 f          1 WD2      -0.111333
      5 C2           8.7690    32.6540   -59.4340 ca         1 WD2      -0.114300
      6 C1           9.4400    31.6220   -60.1190 ca         1 WD2      -0.187000
      7 C3           8.0610    32.2850   -58.2710 ca         1 WD2      -0.188000
      8 C4           8.0400    30.9370   -57.8550 ca         1 WD2       0.626900
      9 N            8.6800    29.9620   -58.5260 nb         1 WD2      -0.741000
     10 C            9.3660    30.3060   -59.6360 ca         1 WD2       0.391900
     11 N1           7.3580    30.5020   -56.6980 nh         1 WD2      -0.773300
     12 C8           6.9060    31.4810   -55.6550 c6         1 WD2       0.178300
     13 C7           6.6830    30.8230   -54.2540 c6         1 WD2       0.137800
     14 N2           5.8070    29.6170   -54.3120 n7         1 WD2      -0.840400
     15 C6           6.3530    28.6240   -55.2810 c6         1 WD2       0.137800
     16 C5           6.5670    29.2220   -56.7100 c6         1 WD2       0.178300
     17 H1          10.0180    31.8230   -61.0170 ha         1 WD2       0.140000
     18 H2           7.5260    33.0390   -57.7050 ha         1 WD2       0.137000
     19 H3           9.8790    29.4970   -60.1570 h4         1 WD2       0.022100
     20 H4           7.6530    32.2790   -55.5320 h1         1 WD2       0.053450
     21 H5           5.9680    31.9570   -55.9770 h1         1 WD2       0.053450
     22 H6           7.6630    30.5380   -53.8410 h1         1 WD2       0.063950
     23 H7           6.2490    31.5670   -53.5700 h1         1 WD2       0.063950
     24 H8           4.8800    29.9120   -54.6450 hn         1 WD2       0.405000
     25 H10          5.6770    27.7590   -55.3490 h1         1 WD2       0.063950
     26 H11          7.3200    28.2500   -54.9110 h1         1 WD2       0.063950
     27 H12          5.5830    29.4060   -57.1650 h1         1 WD2       0.053450
     28 H13          7.0590    28.4500   -57.3190 h1         1 WD2       0.053450
@<TRIPOS>BOND
     1     1     2 1   
     2     2     3 1   
     3     2     4 1   
     4     2     5 1   
     5     5     6 ar  
     6     5     7 ar  
     7     6    10 ar  
     8     6    17 1   
     9     7     8 ar  
    10     7    18 1   
    11     8     9 ar  
    12     8    11 1   
    13     9    10 ar  
    14    10    19 1   
    15    11    12 1   
    16    11    16 1   
    17    12    13 1   
    18    12    20 1   
    19    12    21 1   
    20    13    14 1   
    21    13    22 1   
    22    13    23 1   
    23    14    15 1   
    24    14    24 1   
    25    15    16 1   
    26    15    25 1   
    27    15    26 1   
    28    16    27 1   
    29    16    28 1   
@<TRIPOS>SUBSTRUCTURE
     1 WD2         1 TEMP              0 ****  ****    0 ROOT
