@<TRIPOS>MOLECULE
WD2
   28    29     1     0     0
SMALL
abcg2


@<TRIPOS>ATOM
      1 F2           8.6900    34.3970   -60.8110 f          1 WD2      -0.111333
      2 C9           9.1680    34.0510   -59.6090 c3         1 WD2       0.353300
      3 F            8.6720    34.9170   -58.7230 f          1 WD2      -0.111333
      4 F1          10.4930    34.2450   -59.6510 f          1 WD2      -0.111333
      5 C2           8.8440    32.6220   -59.2850 ca         1 WD2      -0.114300
      6 C1           9.2910    31.6250   -60.1510 ca         1 WD2      -0.187000
      7 C3           8.1270    32.3000   -58.1570 ca         1 WD2      -0.188000
      8 C4           7.8610    30.9360   -57.8880 ca         1 WD2       0.626900
      9 N            8.2780    29.9890   -58.7310 nb         1 WD2      -0.741000
     10 C            8.9670    30.3280   -59.8100 ca         1 WD2       0.391900
     11 N1           7.2040    30.5280   -56.7640 nh         1 WD2      -0.773300
     12 C8           6.4610    31.4530   -55.9250 c6         1 WD2       0.178300
     13 C7           6.4360    30.9700   -54.4780 c6         1 WD2       0.137800
     14 N2           5.9780    29.6050   -54.3160 n7         1 WD2      -0.840400
     15 C6           6.7450    28.7200   -55.1730 c6         1 WD2       0.137800
     16 C5           6.7700    29.1450   -56.6360 c6         1 WD2       0.178300
     17 H1           9.8560    31.8360   -61.0470 ha         1 WD2       0.140000
     18 H2           7.7810    33.0790   -57.4970 ha         1 WD2       0.137000
     19 H3           9.2780    29.5090   -60.4490 h4         1 WD2       0.022100
     20 H4           6.9170    32.4400   -55.9380 h1         1 WD2       0.053450
     21 H5           5.4340    31.5630   -56.3000 h1         1 WD2       0.053450
     22 H6           7.4480    31.0440   -54.0670 h1         1 WD2       0.063950
     23 H7           5.8030    31.6400   -53.8950 h1         1 WD2       0.063950
     24 H8           4.9970    29.5470   -54.5660 hn         1 WD2       0.405000
     25 H10          6.3390    27.7090   -55.1070 h1         1 WD2       0.063950
     26 H11          7.7710    28.6810   -54.7960 h1         1 WD2       0.063950
     27 H12          5.7670    29.0250   -57.0710 h1         1 WD2       0.053450
     28 H13          7.4430    28.5000   -57.1930 h1         1 WD2       0.053450
@<TRIPOS>BOND
     1     1     2 1   
     2     2     3 1   
     3     2     4 1   
     4     2     5 1   
     5     5     6 ar  
     6     5     7 ar  
     7     6    10 ar  
     8     6    17 1   
     9     7     8 ar  
    10     7    18 1   
    11     8     9 ar  
    12     8    11 1   
    13     9    10 ar  
    14    10    19 1   
    15    11    12 1   
    16    11    16 1   
    17    12    13 1   
    18    12    20 1   
    19    12    21 1   
    20    13    14 1   
    21    13    22 1   
    22    13    23 1   
    23    14    15 1   
    24    14    24 1   
    25    15    16 1   
    26    15    25 1   
    27    15    26 1   
    28    16    27 1   
    29    16    28 1   
@<TRIPOS>SUBSTRUCTURE
     1 WD2         1 TEMP              0 ****  ****    0 ROOT
