@<TRIPOS>MOLECULE
WD4
   19    20     1     0     0
SMALL
abcg2


@<TRIPOS>ATOM
      1 N1          37.9620    13.3790    44.6320 ns         1 WD4      -0.480900
      2 C1          33.9190    11.2330    44.5070 cx         1 WD4      -0.132900
      3 C5          36.6170    13.6530    44.4670 c          1 WD4       0.586000
      4 C4          38.3250    12.1740    43.8840 c5         1 WD4       0.062000
      5 C3          36.9770    11.4410    43.7950 c5         1 WD4       0.097000
      6 C2          34.6140    12.3620    43.7900 cx         1 WD4       0.065700
      7 O           36.0700    14.7200    44.7380 o          1 WD4      -0.573000
      8 N           36.0190    12.5280    43.9760 n          1 WD4      -0.414800
      9 C           33.6740    12.6560    44.9230 cx         1 WD4      -0.132900
     10 H1          38.5800    14.1760    44.6090 hn         1 WD4       0.315500
     11 H3          34.5210    10.6190    45.1630 hc         1 WD4       0.079700
     12 H4          38.7000    12.4270    42.8890 h1         1 WD4       0.051200
     13 H5          39.0780    11.5880    44.4070 h1         1 WD4       0.051200
     14 H6          36.8370    10.9460    42.8340 h1         1 WD4       0.051200
     15 H7          36.8710    10.6960    44.5890 h1         1 WD4       0.051200
     16 H8          34.2600    12.5860    42.7890 h1         1 WD4       0.084700
     17 H9          32.7260    13.1160    44.6770 hc         1 WD4       0.079700
     18 H10         34.1160    12.9890    45.8510 hc         1 WD4       0.079700
     19 H2          33.1450    10.7050    43.9680 hc         1 WD4       0.079700
@<TRIPOS>BOND
     1     1     3 1   
     2     1     4 1   
     3     1    10 1   
     4     2     6 1   
     5     2     9 1   
     6     2    11 1   
     7     2    19 1   
     8     3     7 2   
     9     3     8 1   
    10     4     5 1   
    11     4    12 1   
    12     4    13 1   
    13     5     8 1   
    14     5    14 1   
    15     5    15 1   
    16     6     8 1   
    17     6     9 1   
    18     6    16 1   
    19     9    17 1   
    20     9    18 1   
@<TRIPOS>SUBSTRUCTURE
     1 WD4         1 TEMP              0 ****  ****    0 ROOT
