@<TRIPOS>MOLECULE
WD4
   19    20     1     0     0
SMALL
No Charge or Current Charge


@<TRIPOS>ATOM
      1 N1          38.0030    13.5550    44.2440 ns         1 WD4      -0.480900
      2 C1          33.8410    11.1890    44.3880 cx         1 WD4      -0.132900
      3 C5          36.6630    13.7640    44.2480 c          1 WD4       0.586000
      4 C4          38.3670    12.1560    43.9850 c5         1 WD4       0.062000
      5 C3          36.9720    11.4490    43.8180 c5         1 WD4       0.097000
      6 C2          34.5840    12.4110    43.9010 cx         1 WD4       0.065700
      7 O           36.1240    14.8430    44.4230 o          1 WD4      -0.573000
      8 N           36.0290    12.5620    44.0130 n          1 WD4      -0.414800
      9 C           33.6680    12.5110    45.0960 cx         1 WD4      -0.132900
     10 H1          38.6330    14.3330    44.3950 hn         1 WD4       0.315500
     11 H3          34.4030    10.4140    44.9020 hc         1 WD4       0.079700
     12 H4          38.9730    12.0560    43.0750 h1         1 WD4       0.051200
     13 H5          38.9330    11.7220    44.8200 h1         1 WD4       0.051200
     14 H6          36.8610    11.0030    42.8210 h1         1 WD4       0.051200
     15 H7          36.8280    10.6640    44.5720 h1         1 WD4       0.051200
     16 H8          34.2590    12.8700    42.9660 h1         1 WD4       0.084700
     17 H9          32.7270    13.0400    44.9660 hc         1 WD4       0.079700
     18 H10         34.1250    12.6260    46.0750 hc         1 WD4       0.079700
     19 H2          33.0160    10.8270    43.7800 hc         1 WD4       0.079700
@<TRIPOS>BOND
     1     1     3 1   
     2     1     4 1   
     3     1    10 1   
     4     2     6 1   
     5     2     9 1   
     6     2    11 1   
     7     2    19 1   
     8     3     7 2   
     9     3     8 1   
    10     4     5 1   
    11     4    12 1   
    12     4    13 1   
    13     5     8 1   
    14     5    14 1   
    15     5    15 1   
    16     6     8 1   
    17     6     9 1   
    18     6    16 1   
    19     9    17 1   
    20     9    18 1   
@<TRIPOS>SUBSTRUCTURE
     1 WD4         1 TEMP              0 ****  ****    0 ROOT
