@<TRIPOS>MOLECULE
WD5
   28    29     1     0     0
SMALL
No Charge or Current Charge


@<TRIPOS>ATOM
      1 C1           7.4920    30.3590    56.4870 c6         1 WD5       0.230300
      2 O1           8.2330    31.5850    56.5680 oh         1 WD5      -0.657000
      3 C2           8.0190    29.3490    57.5480 ca         1 WD5      -0.106300
      4 C3           9.1770    29.6090    58.3260 ca         1 WD5      -0.093000
      5 C4           9.6340    28.6740    59.2720 ca         1 WD5      -0.106000
      6 C5           8.9520    27.4630    59.4520 ca         1 WD5       0.121000
      7 Cl1          9.5290    26.2950    60.6340 cl         1 WD5      -0.205000
      8 C6           7.8160    27.1800    58.6830 ca         1 WD5      -0.106000
      9 C7           7.3550    28.1120    57.7360 ca         1 WD5      -0.093000
     10 C8           5.9840    30.6910    56.7160 c6         1 WD5      -0.081900
     11 C9           5.3980    31.5640    55.5790 c6         1 WD5       0.162300
     12 N1           5.5970    30.9220    54.2580 n7         1 WD5      -0.866400
     13 C10          7.0280    30.6650    53.9690 c6         1 WD5       0.162300
     14 C11          7.6680    29.7690    55.0580 c6         1 WD5      -0.081900
     15 H1           8.0830    31.9350    57.4710 ho         1 WD5       0.443000
     16 H2           9.7430    30.5300    58.2080 ha         1 WD5       0.123000
     17 H3          10.5210    28.8880    59.8630 ha         1 WD5       0.129000
     18 H4           7.2930    26.2360    58.8160 ha         1 WD5       0.129000
     19 H5           6.4800    27.8570    57.1440 ha         1 WD5       0.123000
     20 H6           5.8490    31.1980    57.6800 hc         1 WD5       0.055700
     21 H7           5.3900    29.7710    56.7740 hc         1 WD5       0.055700
     22 H8           5.8780    32.5550    55.5830 h1         1 WD5       0.035200
     23 H9           4.3230    31.7190    55.7530 h1         1 WD5       0.035200
     24 H10          5.2190    31.5420    53.5290 hn         1 WD5       0.412000
     25 H12          7.1210    30.1740    52.9890 h1         1 WD5       0.035200
     26 H13          7.5690    31.6220    53.9110 h1         1 WD5       0.035200
     27 H14          7.2100    28.7720    55.0050 hc         1 WD5       0.055700
     28 H15          8.7340    29.6270    54.8400 hc         1 WD5       0.055700
@<TRIPOS>BOND
     1     1     2 1   
     2     1     3 1   
     3     1    10 1   
     4     1    14 1   
     5     2    15 1   
     6     3     4 ar  
     7     3     9 ar  
     8     4     5 ar  
     9     4    16 1   
    10     5     6 ar  
    11     5    17 1   
    12     6     7 1   
    13     6     8 ar  
    14     8     9 ar  
    15     8    18 1   
    16     9    19 1   
    17    10    11 1   
    18    10    20 1   
    19    10    21 1   
    20    11    12 1   
    21    11    22 1   
    22    11    23 1   
    23    12    13 1   
    24    12    24 1   
    25    13    14 1   
    26    13    25 1   
    27    13    26 1   
    28    14    27 1   
    29    14    28 1   
@<TRIPOS>SUBSTRUCTURE
     1 WD5         1 TEMP              0 ****  ****    0 ROOT
