@<TRIPOS>MOLECULE
WD5
   28    29     1     0     0
SMALL
abcg2


@<TRIPOS>ATOM
      1 C1           7.5080    30.3460    56.4910 c6         1 WD5       0.230300
      2 O1           8.2780    31.5300    56.5280 oh         1 WD5      -0.657000
      3 C2           8.0100    29.3410    57.5220 ca         1 WD5      -0.106300
      4 C3           9.1290    29.6050    58.3050 ca         1 WD5      -0.093000
      5 C4           9.5830    28.6930    59.2500 ca         1 WD5      -0.106000
      6 C5           8.9120    27.4950    59.4120 ca         1 WD5       0.121000
      7 CL1          9.4630    26.3520    60.5940 cl         1 WD5      -0.205000
      8 C6           7.8020    27.1950    58.6370 ca         1 WD5      -0.106000
      9 C7           7.3640    28.1180    57.7010 ca         1 WD5      -0.093000
     10 C8           6.0250    30.6750    56.7300 c6         1 WD5      -0.081900
     11 C9           5.4590    31.5470    55.6190 c6         1 WD5       0.162300
     12 N1           5.6290    30.8760    54.3430 n7         1 WD5      -0.866400
     13 C10          7.0320    30.6730    54.0260 c6         1 WD5       0.162300
     14 C11          7.6730    29.7760    55.0760 c6         1 WD5      -0.081900
     15 H1           8.0120    32.0510    57.2940 ho         1 WD5       0.443000
     16 H2           9.6720    30.5320    58.1900 ha         1 WD5       0.123000
     17 H3          10.4540    28.9230    59.8500 ha         1 WD5       0.129000
     18 H4           7.2820    26.2540    58.7580 ha         1 WD5       0.129000
     19 H5           6.4970    27.8600    57.1050 ha         1 WD5       0.123000
     20 H6           5.9080    31.1670    57.7000 hc         1 WD5       0.055700
     21 H7           5.4450    29.7510    56.7740 hc         1 WD5       0.055700
     22 H8           5.9330    32.5400    55.6470 h1         1 WD5       0.035200
     23 H9           4.3930    31.7050    55.7970 h1         1 WD5       0.035200
     24 H10          5.1920    31.4220    53.6120 hn         1 WD5       0.412000
     25 H12          7.1050    30.1880    53.0500 h1         1 WD5       0.035200
     26 H13          7.5920    31.6170    53.9540 h1         1 WD5       0.035200
     27 H14          7.2080    28.7890    55.0320 hc         1 WD5       0.055700
     28 H15          8.7360    29.6380    54.8590 hc         1 WD5       0.055700
@<TRIPOS>BOND
     1     1     2 1   
     2     1     3 1   
     3     1    10 1   
     4     1    14 1   
     5     2    15 1   
     6     3     4 ar  
     7     3     9 ar  
     8     4     5 ar  
     9     4    16 1   
    10     5     6 ar  
    11     5    17 1   
    12     6     7 1   
    13     6     8 ar  
    14     8     9 ar  
    15     8    18 1   
    16     9    19 1   
    17    10    11 1   
    18    10    20 1   
    19    10    21 1   
    20    11    12 1   
    21    11    22 1   
    22    11    23 1   
    23    12    13 1   
    24    12    24 1   
    25    13    14 1   
    26    13    25 1   
    27    13    26 1   
    28    14    27 1   
    29    14    28 1   
@<TRIPOS>SUBSTRUCTURE
     1 WD5         1 TEMP              0 ****  ****    0 ROOT
