@<TRIPOS>MOLECULE
WD7
   39    40     1     0     0
SMALL
abcg2


@<TRIPOS>ATOM
      1 C20         26.6990     2.2630     0.7620 cc         1 WD7      -0.280600
      2 C21         25.5500     1.5690     1.1840 cs         1 WD7       0.466000
      3 C01         23.0810     1.6200     1.1610 c3         1 WD7       0.067300
      4 C03         24.2700     3.4170     0.1270 c          1 WD7       0.609000
      5 C05         25.4280     5.3080    -0.9400 c3         1 WD7       0.098300
      6 C06         26.6250     3.4620     0.0860 cd         1 WD7       0.434900
      7 C08         28.6650     3.0500     0.2710 cc         1 WD7       0.444400
      8 C10         28.7530     0.8330     1.3290 c3         1 WD7       0.043600
      9 C11         28.7200    -0.2720     0.2780 c3         1 WD7       0.085000
     10 C13         28.5550     0.6740    -1.9700 c          1 WD7       0.675100
     11 C16         27.8310     3.2600    -3.9140 c3         1 WD7      -0.359100
     12 N02         24.3760     2.2050     0.8210 n          1 WD7      -0.288400
     13 N04         25.4380     4.0430    -0.2230 n          1 WD7      -0.346300
     14 N07         27.8340     3.9530    -0.2140 nd         1 WD7      -0.708000
     15 N09         28.0560     2.0220     0.8760 na         1 WD7      -0.109500
     16 N12         29.2940     0.1400    -0.9780 ns         1 WD7      -0.515900
     17 N14         29.3110     1.1420    -3.0390 ns         1 WD7      -0.605300
     18 O17         27.6480     0.8430    -4.9470 o          1 WD7      -0.521500
     19 O18         29.7860     2.1100    -5.2550 o          1 WD7      -0.521500
     20 O19         27.3400     0.7520    -1.9690 o          1 WD7      -0.597100
     21 O23         23.1800     3.8790    -0.1400 o          1 WD7      -0.537000
     22 S15         28.6380     1.7680    -4.4330 s6         1 WD7       1.233800
     23 S22         25.5910     0.1360     2.0380 s          1 WD7      -0.570400
     24 H013        23.2470     0.6880     1.6840 h1         1 WD7       0.073033
     25 H012        22.5190     2.2940     1.8030 h1         1 WD7       0.073033
     26 H011        22.5070     1.4250     0.2580 h1         1 WD7       0.073033
     27 H052        24.4040     5.6200    -1.1020 h1         1 WD7       0.062033
     28 H053        25.9470     6.0680    -0.3610 h1         1 WD7       0.062033
     29 H051        25.9240     5.1940    -1.9030 h1         1 WD7       0.062033
     30 H081        29.7420     3.1110     0.2120 h5         1 WD7       0.059100
     31 H102        28.3060     0.4810     2.2550 h1         1 WD7       0.084700
     32 H101        29.7810     1.1290     1.5370 h1         1 WD7       0.084700
     33 H111        27.6980    -0.6110     0.1210 h1         1 WD7       0.090200
     34 H112        29.2870    -1.1210     0.6590 h1         1 WD7       0.090200
     35 H162        27.0260     3.0210    -3.2260 h1         1 WD7       0.110367
     36 H161        28.5610     3.9110    -3.4400 h1         1 WD7       0.110367
     37 H163        27.4300     3.7340    -4.8090 h1         1 WD7       0.110367
     38 H121        30.2990     0.1320    -1.0540 hn         1 WD7       0.315500
     39 H141        30.3200     1.2120    -2.9790 hn         1 WD7       0.339500
@<TRIPOS>BOND
     1     1     2 1   
     2     1     6 2   
     3     1    15 1   
     4     2    12 1   
     5     2    23 2   
     6     3    12 1   
     7     3    24 1   
     8     3    25 1   
     9     3    26 1   
    10     4    12 1   
    11     4    13 1   
    12     4    21 2   
    13     5    13 1   
    14     5    27 1   
    15     5    28 1   
    16     5    29 1   
    17     6    13 1   
    18     6    14 1   
    19     7    14 2   
    20     7    15 1   
    21     7    30 1   
    22     8     9 1   
    23     8    15 1   
    24     8    31 1   
    25     8    32 1   
    26     9    16 1   
    27     9    33 1   
    28     9    34 1   
    29    10    16 1   
    30    10    17 1   
    31    10    20 2   
    32    11    22 1   
    33    11    35 1   
    34    11    36 1   
    35    11    37 1   
    36    16    38 1   
    37    17    22 1   
    38    17    39 1   
    39    18    22 2   
    40    19    22 2   
@<TRIPOS>SUBSTRUCTURE
     1 WD7         1 TEMP              0 ****  ****    0 ROOT
