@<TRIPOS>MOLECULE
WD7
   39    40     1     0     0
SMALL
No Charge or Current Charge


@<TRIPOS>ATOM
      1 C20         26.6540     2.3810     0.7600 cc         1 WD7      -0.280600
      2 C21         25.4960     1.6220     1.1590 cs         1 WD7       0.466000
      3 C01         23.0080     1.4610     1.2100 c3         1 WD7       0.067300
      4 C03         24.1600     3.4330     0.1890 c          1 WD7       0.609000
      5 C05         25.2100     5.4400    -0.8370 c3         1 WD7       0.098300
      6 C06         26.5460     3.5830     0.1360 cd         1 WD7       0.434900
      7 C08         28.6560     3.2320     0.3130 cc         1 WD7       0.444400
      8 C10         28.7130     0.9260     1.3450 c3         1 WD7       0.043600
      9 C11         28.7120    -0.2420     0.3300 c3         1 WD7       0.085000
     10 C13         28.5420     0.5990    -2.0310 c          1 WD7       0.675100
     11 C16         28.2240     3.2360    -4.1110 c3         1 WD7      -0.359100
     12 N02         24.2640     2.1800     0.8470 n          1 WD7      -0.288400
     13 N04         25.3280     4.1290    -0.1500 n          1 WD7      -0.346300
     14 N07         27.7820     4.1190    -0.1340 nd         1 WD7      -0.708000
     15 N09         28.0190     2.1360     0.8580 na         1 WD7      -0.109500
     16 N12         29.2810     0.1400    -0.9740 ns         1 WD7      -0.515900
     17 N14         29.3150     0.9980    -3.0580 ns         1 WD7      -0.605300
     18 O17         27.6730     0.8090    -5.0000 o          1 WD7      -0.521500
     19 O18         30.0070     1.7470    -5.3630 o          1 WD7      -0.521500
     20 O19         27.3270     0.6620    -2.0240 o          1 WD7      -0.597100
     21 O23         23.0680     3.9160    -0.0810 o          1 WD7      -0.537000
     22 S15         28.8120     1.6030    -4.5270 s6         1 WD7       1.233800
     23 S22         25.5990     0.1570     1.9770 s          1 WD7      -0.570400
     24 H013        23.0200     0.4550     0.7730 h1         1 WD7       0.073033
     25 H012        22.9370     1.3740     2.3020 h1         1 WD7       0.073033
     26 H011        22.1090     1.9730     0.8490 h1         1 WD7       0.073033
     27 H052        24.5660     6.1090    -0.2530 h1         1 WD7       0.062033
     28 H053        26.1890     5.9210    -0.9550 h1         1 WD7       0.062033
     29 H051        24.7680     5.2970    -1.8310 h1         1 WD7       0.062033
     30 H081        29.7360     3.3080     0.2550 h5         1 WD7       0.059100
     31 H102        28.2630     0.6010     2.2900 h1         1 WD7       0.084700
     32 H101        29.7540     1.1920     1.5680 h1         1 WD7       0.084700
     33 H111        27.6860    -0.6030     0.1860 h1         1 WD7       0.090200
     34 H112        29.2960    -1.0760     0.7420 h1         1 WD7       0.090200
     35 H162        27.3990     3.1180    -3.4010 h1         1 WD7       0.110367
     36 H161        29.0590     3.7830    -3.6630 h1         1 WD7       0.110367
     37 H163        27.8870     3.7090    -5.0390 h1         1 WD7       0.110367
     38 H121        30.2860     0.1070    -1.0890 hn         1 WD7       0.315500
     39 H141        30.3150     0.9290    -3.0020 hn         1 WD7       0.339500
@<TRIPOS>BOND
     1     1     2 1   
     2     1     6 2   
     3     1    15 1   
     4     2    12 1   
     5     2    23 2   
     6     3    12 1   
     7     3    24 1   
     8     3    25 1   
     9     3    26 1   
    10     4    12 1   
    11     4    13 1   
    12     4    21 2   
    13     5    13 1   
    14     5    27 1   
    15     5    28 1   
    16     5    29 1   
    17     6    13 1   
    18     6    14 1   
    19     7    14 2   
    20     7    15 1   
    21     7    30 1   
    22     8     9 1   
    23     8    15 1   
    24     8    31 1   
    25     8    32 1   
    26     9    16 1   
    27     9    33 1   
    28     9    34 1   
    29    10    16 1   
    30    10    17 1   
    31    10    20 2   
    32    11    22 1   
    33    11    35 1   
    34    11    36 1   
    35    11    37 1   
    36    16    38 1   
    37    17    22 1   
    38    17    39 1   
    39    18    22 2   
    40    19    22 2   
@<TRIPOS>SUBSTRUCTURE
     1 WD7         1 TEMP              0 ****  ****    0 ROOT
