@<TRIPOS>MOLECULE
WD8
   31    31     1     0     0
SMALL
No Charge or Current Charge


@<TRIPOS>ATOM
      1 C7          28.3770    16.5820    39.4980 cc         1 WD8      -0.157600
      2 C8          27.2200    17.0890    38.8390 cc         1 WD8      -0.079000
      3 C9          26.7110    16.2730    37.8640 cd         1 WD8      -0.240000
      4 O1          28.4710    13.3490    42.1520 os         1 WD8      -0.449100
      5 C1          30.9330    17.6350    42.2330 c3         1 WD8       0.103700
      6 C5          29.6180    12.5000    41.9400 c3         1 WD8       0.162900
      7 C6          29.0610    17.3890    40.5700 c          1 WD8       0.641700
      8 C4          28.5700    14.7260    42.1040 c          1 WD8       0.577100
      9 C3          29.9810    15.3130    41.7820 c3         1 WD8       0.004000
     10 C2          32.4030    17.1540    42.2180 c3         1 WD8      -0.104600
     11 O2          28.7860    18.5740    40.7220 o          1 WD8      -0.586100
     12 C10         28.7700    15.3660    38.9700 cd         1 WD8      -0.233000
     13 S           27.6710    14.8000    37.7000 ss         1 WD8       0.200000
     14 N           30.0370    16.7700    41.4110 n          1 WD8      -0.397800
     15 C           30.4080    17.8140    43.6750 c3         1 WD8      -0.104600
     16 O           27.5980    15.4300    42.3330 o          1 WD8      -0.420000
     17 H1          26.7790    18.0470    39.1010 ha         1 WD8       0.155000
     18 H2          25.8450    16.4350    37.2350 h4         1 WD8       0.156000
     19 H3          30.9520    18.6350    41.7780 h1         1 WD8       0.092700
     20 H4          29.3380    11.4480    42.0780 h1         1 WD8       0.046700
     21 H5          30.0080    12.6060    40.9200 h1         1 WD8       0.046700
     22 H6          30.4190    12.7280    42.6560 h1         1 WD8       0.046700
     23 H7          30.4760    14.7330    41.0000 h1         1 WD8       0.068200
     24 H8          30.5690    15.1440    42.6910 h1         1 WD8       0.068200
     25 H9          33.0500    17.8930    42.7050 hc         1 WD8       0.042700
     26 H10         32.5270    16.2010    42.7460 hc         1 WD8       0.042700
     27 H11         32.7530    17.0260    41.1870 hc         1 WD8       0.042700
     28 H12         29.6470    14.7710    39.1780 h4         1 WD8       0.148000
     29 H13         31.0270    18.5340    44.2230 hc         1 WD8       0.042700
     30 H14         29.3790    18.1920    43.6640 hc         1 WD8       0.042700
     31 H15         30.4190    16.8660    44.2270 hc         1 WD8       0.042700
@<TRIPOS>BOND
     1     1     2 1   
     2     1     7 1   
     3     1    12 2   
     4     2     3 2   
     5     2    17 1   
     6     3    13 1   
     7     3    18 1   
     8     4     6 1   
     9     4     8 1   
    10     5    10 1   
    11     5    14 1   
    12     5    15 1   
    13     5    19 1   
    14     6    20 1   
    15     6    21 1   
    16     6    22 1   
    17     7    11 2   
    18     7    14 1   
    19     8     9 1   
    20     8    16 2   
    21     9    14 1   
    22     9    23 1   
    23     9    24 1   
    24    10    25 1   
    25    10    26 1   
    26    10    27 1   
    27    12    13 1   
    28    12    28 1   
    29    15    29 1   
    30    15    30 1   
    31    15    31 1   
@<TRIPOS>SUBSTRUCTURE
     1 WD8         1 TEMP              0 ****  ****    0 ROOT
