@<TRIPOS>MOLECULE
WD8
   31    31     1     0     0
SMALL
abcg2


@<TRIPOS>ATOM
      1 C7          28.6220    16.5280    39.4450 cc         1 WD8      -0.157600
      2 C8          27.2340    16.7110    39.1650 cc         1 WD8      -0.079000
      3 C9          26.7790    15.8740    38.1910 cd         1 WD8      -0.240000
      4 O1          28.3370    13.6700    42.2210 os         1 WD8      -0.449100
      5 C1          30.8950    17.6440    42.3030 c3         1 WD8       0.103700
      6 C5          29.3150    12.6750    41.8420 c3         1 WD8       0.162900
      7 C6          29.3530    17.4000    40.4140 c          1 WD8       0.641700
      8 C4          28.5980    14.9800    42.1390 c          1 WD8       0.577100
      9 C3          29.9870    15.3900    41.6700 c3         1 WD8       0.004000
     10 C2          32.3610    17.2210    42.2890 c3         1 WD8      -0.104600
     11 O2          29.2640    18.6240    40.2950 o          1 WD8      -0.586100
     12 C10         29.1870    15.5630    38.6540 cd         1 WD8      -0.233000
     13 S           28.0400    14.8720    37.5810 ss         1 WD8       0.200000
     14 N           30.0980    16.8050    41.3820 n          1 WD8      -0.397800
     15 C           30.3020    17.6600    43.7100 c3         1 WD8      -0.104600
     16 O           27.7380    15.7670    42.4550 o          1 WD8      -0.420000
     17 H1          26.6120    17.4260    39.6840 ha         1 WD8       0.155000
     18 H2          25.7790    15.7880    37.7980 h4         1 WD8       0.156000
     19 H3          30.8220    18.6460    41.8900 h1         1 WD8       0.092700
     20 H4          28.8570    11.7210    42.0840 h1         1 WD8       0.046700
     21 H5          29.5160    12.7280    40.7730 h1         1 WD8       0.046700
     22 H6          30.2350    12.7960    42.4120 h1         1 WD8       0.046700
     23 H7          30.2910    14.7800    40.8250 h1         1 WD8       0.068200
     24 H8          30.6800    15.1420    42.4740 h1         1 WD8       0.068200
     25 H9          32.9450    17.9220    42.8870 hc         1 WD8       0.042700
     26 H10         32.5070    16.2260    42.7140 hc         1 WD8       0.042700
     27 H11         32.7550    17.2230    41.2710 hc         1 WD8       0.042700
     28 H12         30.2140    15.2360    38.6270 h4         1 WD8       0.148000
     29 H13         30.8750    18.3440    44.3370 hc         1 WD8       0.042700
     30 H14         29.2640    17.9930    43.6890 hc         1 WD8       0.042700
     31 H15         30.3390    16.6720    44.1760 hc         1 WD8       0.042700
@<TRIPOS>BOND
     1     1     2 1   
     2     1     7 1   
     3     1    12 2   
     4     2     3 2   
     5     2    17 1   
     6     3    13 1   
     7     3    18 1   
     8     4     6 1   
     9     4     8 1   
    10     5    10 1   
    11     5    14 1   
    12     5    15 1   
    13     5    19 1   
    14     6    20 1   
    15     6    21 1   
    16     6    22 1   
    17     7    11 2   
    18     7    14 1   
    19     8     9 1   
    20     8    16 2   
    21     9    14 1   
    22     9    23 1   
    23     9    24 1   
    24    10    25 1   
    25    10    26 1   
    26    10    27 1   
    27    12    13 1   
    28    12    28 1   
    29    15    29 1   
    30    15    30 1   
    31    15    31 1   
@<TRIPOS>SUBSTRUCTURE
     1 WD8         1 TEMP              0 ****  ****    0 ROOT
