@<TRIPOS>MOLECULE
WD9
   60    64     1     0     0
SMALL
No Charge or Current Charge


@<TRIPOS>ATOM
      1 C2         152.8310   136.1310   126.3290 c3         1 WD9       0.036500
      2 C3         153.0020   134.5990   126.2600 c3         1 WD9      -0.086600
      3 C4         153.8450   136.8480   125.4690 cc         1 WD9      -0.300800
      4 C5         155.2050   136.9040   125.5290 cd         1 WD9       0.195500
      5 C9         156.9530   137.9390   124.3490 cd         1 WD9       0.604400
      6 C12        153.5200   137.6710   124.3490 cc         1 WD9       0.415500
      7 C1         152.8430   136.6490   127.7830 c3         1 WD9      -0.086600
      8 N6         155.9920   136.2810   126.4570 nd         1 WD9      -0.227000
      9 C7         157.2680   136.5840   126.2070 cc         1 WD9       0.418300
     10 N8         157.8080   137.3710   125.1930 nc         1 WD9      -0.365000
     11 N10        155.5880   137.7060   124.5020 na         1 WD9      -0.156600
     12 N11        154.5610   138.2230   123.7230 nd         1 WD9      -0.610100
     13 N13        157.3890   138.7520   123.3480 nu         1 WD9      -0.924100
     14 C14        158.7360   139.3260   123.1970 c3         1 WD9       0.287100
     15 C15        159.1580   140.1490   124.4270 ca         1 WD9      -0.094300
     16 C16        158.2290   141.0290   125.0280 ca         1 WD9      -0.096000
     17 C17        158.5780   141.7770   126.1650 ca         1 WD9      -0.099000
     18 C18        159.8640   141.6650   126.7110 ca         1 WD9      -0.100000
     19 C19        160.8030   140.8090   126.1160 ca         1 WD9      -0.089000
     20 C20        160.4640   140.0500   124.9780 ca         1 WD9       0.015800
     21 N21        161.4390   139.2250   124.4120 na         1 WD9       0.211000
     22 C22        162.0200   139.4700   123.1770 cc         1 WD9      -0.168000
     23 C23        162.8760   138.4100   123.0560 cd         1 WD9      -0.225000
     24 C24        162.7490   137.6150   124.2210 cd         1 WD9       0.239900
     25 N25        161.8670   138.0990   125.0760 nc         1 WD9      -0.514800
     26 O26        158.0960   135.9870   127.1220 os         1 WD9      -0.446300
     27 C27        159.4540   136.4660   127.3240 c6         1 WD9       0.159300
     28 C28        159.4680   137.8770   127.9970 c6         1 WD9      -0.099400
     29 C29        159.6280   137.8140   129.5450 c6         1 WD9      -0.085400
     30 C30        159.0350   136.5100   130.1310 c6         1 WD9       0.164800
     31 N31        159.6930   135.2880   129.5860 n7         1 WD9      -0.867400
     32 C32        160.2510   135.4530   128.2020 c6         1 WD9       0.166800
     33 H1         151.8340   136.3520   125.9270 hc         1 WD9       0.038700
     34 H2         152.2020   134.0960   126.8160 hc         1 WD9       0.036200
     35 H3         152.9610   134.2540   125.2200 hc         1 WD9       0.036200
     36 H4         153.9620   134.2880   126.6870 hc         1 WD9       0.036200
     37 H5         152.5270   137.8830   123.9730 h4         1 WD9       0.044800
     38 H6         152.0410   136.1810   128.3660 hc         1 WD9       0.036200
     39 H7         153.7970   136.4250   128.2740 hc         1 WD9       0.036200
     40 H8         152.6910   137.7340   127.8050 hc         1 WD9       0.036200
     41 H9         156.6130   139.1580   122.8250 hn         1 WD9       0.534000
     42 H10        159.4480   138.5090   123.0180 h1         1 WD9       0.072700
     43 H11        158.7700   139.9780   122.3130 h1         1 WD9       0.072700
     44 H12        157.2270   141.1320   124.6180 ha         1 WD9       0.121000
     45 H13        157.8490   142.4450   126.6200 ha         1 WD9       0.122000
     46 H14        160.1350   142.2450   127.5910 ha         1 WD9       0.124000
     47 H15        161.8020   140.7330   126.5400 ha         1 WD9       0.136000
     48 H16        161.7880   140.3180   122.5450 h4         1 WD9       0.154000
     49 H17        163.5380   138.2110   122.2200 ha         1 WD9       0.148000
     50 H18        163.2770   136.7010   124.4630 h4         1 WD9       0.040100
     51 H19        159.9520   136.5240   126.3450 h1         1 WD9       0.075700
     52 H20        160.2970   138.4640   127.5830 hc         1 WD9       0.062200
     53 H21        158.5560   138.4320   127.7410 hc         1 WD9       0.062200
     54 H22        160.6920   137.8760   129.8100 hc         1 WD9       0.045700
     55 H23        159.1460   138.6880   130.0050 hc         1 WD9       0.045700
     56 H24        157.9620   136.4770   129.8870 h1         1 WD9       0.037200
     57 H25        159.1180   136.5140   131.2280 h1         1 WD9       0.037200
     58 H26        158.9790   134.5490   129.5600 hn         1 WD9       0.420000
     59 H28        160.2960   134.4750   127.6990 h1         1 WD9       0.059200
     60 H29        161.2870   135.8160   128.2790 h1         1 WD9       0.059200
@<TRIPOS>BOND
     1     1     2 1   
     2     1     3 1   
     3     1     7 1   
     4     1    33 1   
     5     2    34 1   
     6     2    35 1   
     7     2    36 1   
     8     3     4 2   
     9     3     6 1   
    10     4     8 1   
    11     4    11 1   
    12     5    10 2   
    13     5    11 1   
    14     5    13 1   
    15     6    12 2   
    16     6    37 1   
    17     7    38 1   
    18     7    39 1   
    19     7    40 1   
    20     8     9 2   
    21     9    10 1   
    22     9    26 1   
    23    11    12 1   
    24    13    14 1   
    25    13    41 1   
    26    14    15 1   
    27    14    42 1   
    28    14    43 1   
    29    15    16 ar  
    30    15    20 ar  
    31    16    17 ar  
    32    16    44 1   
    33    17    18 ar  
    34    17    45 1   
    35    18    19 ar  
    36    18    46 1   
    37    19    20 ar  
    38    19    47 1   
    39    20    21 1   
    40    21    22 1   
    41    21    25 1   
    42    22    23 2   
    43    22    48 1   
    44    23    24 1   
    45    23    49 1   
    46    24    25 2   
    47    24    50 1   
    48    26    27 1   
    49    27    28 1   
    50    27    32 1   
    51    27    51 1   
    52    28    29 1   
    53    28    52 1   
    54    28    53 1   
    55    29    30 1   
    56    29    54 1   
    57    29    55 1   
    58    30    31 1   
    59    30    56 1   
    60    30    57 1   
    61    31    32 1   
    62    31    58 1   
    63    32    59 1   
    64    32    60 1   
@<TRIPOS>SUBSTRUCTURE
     1 WD9         1 TEMP              0 ****  ****    0 ROOT
