@<TRIPOS>MOLECULE
WD9
   60    64     1     0     0
SMALL
abcg2


@<TRIPOS>ATOM
      1 C2         152.6670   136.0500   126.1520 c3         1 WD9       0.036500
      2 C3         152.9160   134.5430   126.0840 c3         1 WD9      -0.086600
      3 C4         153.7040   136.8150   125.3870 cc         1 WD9      -0.300800
      4 C5         155.0680   136.8850   125.6200 cd         1 WD9       0.195500
      5 C9         156.8930   137.9910   124.5840 cd         1 WD9       0.604400
      6 C12        153.5180   137.6270   124.2550 cc         1 WD9       0.415500
      7 C1         152.5670   136.5250   127.6020 c3         1 WD9      -0.086600
      8 N6         155.8880   136.3500   126.5420 nd         1 WD9      -0.227000
      9 C7         157.1490   136.6710   126.4120 cc         1 WD9       0.418300
     10 N8         157.6940   137.4630   125.4750 nc         1 WD9      -0.365000
     11 N10        155.5670   137.7110   124.6350 na         1 WD9      -0.156600
     12 N11        154.6290   138.1730   123.7940 nd         1 WD9      -0.610100
     13 N13        157.3340   138.7980   123.6290 nu         1 WD9      -0.924100
     14 C14        158.7240   139.1690   123.5220 c3         1 WD9       0.287100
     15 C15        159.1750   140.1290   124.6010 ca         1 WD9      -0.094300
     16 C16        158.2690   140.9830   125.2220 ca         1 WD9      -0.096000
     17 C17        158.6660   141.8340   126.2420 ca         1 WD9      -0.099000
     18 C18        159.9890   141.8500   126.6610 ca         1 WD9      -0.100000
     19 C19        160.9100   141.0230   126.0410 ca         1 WD9      -0.089000
     20 C20        160.5030   140.1760   125.0190 ca         1 WD9       0.015800
     21 N21        161.4740   139.3380   124.4180 na         1 WD9       0.211000
     22 C22        161.8730   139.3370   123.1270 cc         1 WD9      -0.168000
     23 C23        162.8610   138.3910   123.0200 cd         1 WD9      -0.225000
     24 C24        162.9880   137.8740   124.3220 cd         1 WD9       0.239900
     25 N25        162.1500   138.4560   125.1570 nc         1 WD9      -0.514800
     26 O26        157.9570   136.1390   127.3130 os         1 WD9      -0.446300
     27 C27        159.3630   136.4540   127.3090 c6         1 WD9       0.159300
     28 C28        159.6400   137.8370   127.9150 c6         1 WD9      -0.099400
     29 C29        160.0190   137.7520   129.3970 c6         1 WD9      -0.085400
     30 C30        159.2490   136.6470   130.1010 c6         1 WD9       0.164800
     31 N31        159.5960   135.3420   129.5370 n7         1 WD9      -0.867400
     32 C32        160.0290   135.3770   128.1490 c6         1 WD9       0.166800
     33 H1         151.7050   136.2520   125.6700 hc         1 WD9       0.038700
     34 H2         152.1290   133.9960   126.6060 hc         1 WD9       0.036200
     35 H3         152.9410   134.1930   125.0510 hc         1 WD9       0.036200
     36 H4         153.8680   134.2840   126.5490 hc         1 WD9       0.036200
     37 H5         152.5800   137.8300   123.7580 h4         1 WD9       0.044800
     38 H6         151.7710   135.9950   128.1280 hc         1 WD9       0.036200
     39 H7         153.4990   136.3440   128.1410 hc         1 WD9       0.036200
     40 H8         152.3510   137.5930   127.6550 hc         1 WD9       0.036200
     41 H9         156.6620   139.1860   122.9840 hn         1 WD9       0.534000
     42 H10        159.3380   138.2670   123.5380 h1         1 WD9       0.072700
     43 H11        158.8520   139.6180   122.5360 h1         1 WD9       0.072700
     44 H12        157.2290   140.9710   124.9200 ha         1 WD9       0.121000
     45 H13        157.9390   142.4820   126.7130 ha         1 WD9       0.122000
     46 H14        160.3050   142.5070   127.4600 ha         1 WD9       0.124000
     47 H15        161.9480   141.0270   126.3470 ha         1 WD9       0.136000
     48 H16        161.4430   140.0080   122.4000 h4         1 WD9       0.154000
     49 H17        163.4120   138.1160   122.1370 ha         1 WD9       0.148000
     50 H18        163.6560   137.1030   124.6730 h4         1 WD9       0.040100
     51 H19        159.7360   136.4040   126.2840 h1         1 WD9       0.075700
     52 H20        160.4480   138.3040   127.3520 hc         1 WD9       0.062200
     53 H21        158.7700   138.4830   127.7840 hc         1 WD9       0.062200
     54 H22        161.0910   137.5680   129.5050 hc         1 WD9       0.045700
     55 H23        159.8220   138.7060   129.8880 hc         1 WD9       0.045700
     56 H24        158.1760   136.8630   130.0170 h1         1 WD9       0.037200
     57 H25        159.4810   136.6550   131.1700 h1         1 WD9       0.037200
     58 H26        158.8050   134.7210   129.6240 hn         1 WD9       0.420000
     59 H28        159.8660   134.3920   127.7080 h1         1 WD9       0.059200
     60 H29        161.1080   135.5590   128.0890 h1         1 WD9       0.059200
@<TRIPOS>BOND
     1     1     2 1   
     2     1     3 1   
     3     1     7 1   
     4     1    33 1   
     5     2    34 1   
     6     2    35 1   
     7     2    36 1   
     8     3     4 2   
     9     3     6 1   
    10     4     8 1   
    11     4    11 1   
    12     5    10 2   
    13     5    11 1   
    14     5    13 1   
    15     6    12 2   
    16     6    37 1   
    17     7    38 1   
    18     7    39 1   
    19     7    40 1   
    20     8     9 2   
    21     9    10 1   
    22     9    26 1   
    23    11    12 1   
    24    13    14 1   
    25    13    41 1   
    26    14    15 1   
    27    14    42 1   
    28    14    43 1   
    29    15    16 ar  
    30    15    20 ar  
    31    16    17 ar  
    32    16    44 1   
    33    17    18 ar  
    34    17    45 1   
    35    18    19 ar  
    36    18    46 1   
    37    19    20 ar  
    38    19    47 1   
    39    20    21 1   
    40    21    22 1   
    41    21    25 1   
    42    22    23 2   
    43    22    48 1   
    44    23    24 1   
    45    23    49 1   
    46    24    25 2   
    47    24    50 1   
    48    26    27 1   
    49    27    28 1   
    50    27    32 1   
    51    27    51 1   
    52    28    29 1   
    53    28    52 1   
    54    28    53 1   
    55    29    30 1   
    56    29    54 1   
    57    29    55 1   
    58    30    31 1   
    59    30    56 1   
    60    30    57 1   
    61    31    32 1   
    62    31    58 1   
    63    32    59 1   
    64    32    60 1   
@<TRIPOS>SUBSTRUCTURE
     1 WD9         1 TEMP              0 ****  ****    0 ROOT
