@<TRIPOS>MOLECULE
WDA
   48    51     1     0     0
SMALL
abcg2


@<TRIPOS>ATOM
      1 C10          5.9020     2.2710   -25.1320 c3         1 WDA       0.127900
      2 C13          3.5510    -0.3610   -23.7360 ca         1 WDA      -0.105500
      3 C15          3.3890    -1.4920   -21.4980 c3         1 WDA      -0.012100
      4 C17          3.3940     0.1380   -19.5930 c          1 WDA       0.589500
      5 C21          1.5380     0.1680   -21.3380 c          1 WDA       0.589500
      6 C26          5.9010     0.9060   -23.0190 ca         1 WDA      -0.079500
      7 C28          3.6900     4.4040   -24.1320 c          1 WDA       0.639600
      8 C03          3.7530     6.4350   -22.6910 c          1 WDA       0.629000
      9 C06          5.7720     5.3160   -23.2210 cc         1 WDA       0.440900
     10 C08          7.2410     4.0130   -23.9640 cd         1 WDA       0.444400
     11 C11          5.3010     1.2200   -24.2350 ca         1 WDA      -0.112300
     12 C12          4.1340     0.5590   -24.5950 ca         1 WDA      -0.079500
     13 C14          4.1130    -0.6300   -22.4920 ca         1 WDA      -0.096300
     14 C16          2.5100    -0.6490   -20.5260 c6         1 WDA      -0.240700
     15 C19          2.8130     2.1970   -20.7980 c          1 WDA       0.639000
     16 C25          5.3150    -0.0080   -22.1590 ca         1 WDA      -0.105500
     17 C27          5.1010     4.3650   -23.9430 cd         1 WDA      -0.341600
     18 N02          3.0980     5.4700   -23.4500 n          1 WDA      -0.363400
     19 N04          5.1180     6.3380   -22.5960 n          1 WDA      -0.358300
     20 N07          7.1000     5.1040   -23.2340 nc         1 WDA      -0.705000
     21 N09          6.0820     3.5270   -24.4260 na         1 WDA      -0.118500
     22 N18          3.5110     1.4770   -19.8560 ns         1 WDA      -0.474000
     23 N20          1.8310     1.5020   -21.4640 ns         1 WDA      -0.474000
     24 O22          0.5900    -0.3250   -21.8990 o          1 WDA      -0.503500
     25 O23          3.0270     3.3670   -21.0020 o          1 WDA      -0.528000
     26 O24          4.0060    -0.3830   -18.6920 o          1 WDA      -0.503500
     27 O30          3.1550     7.3370   -22.1370 o          1 WDA      -0.556000
     28 H1           5.2790     2.4390   -26.0090 h1         1 WDA       0.076700
     29 H2           6.8880     1.9670   -25.4870 h1         1 WDA       0.076700
     30 H3           2.6320    -0.8530   -24.0300 ha         1 WDA       0.124000
     31 H4           2.7300    -2.1980   -22.0040 hc         1 WDA       0.075200
     32 H5           4.0850    -2.0770   -20.8950 hc         1 WDA       0.075200
     33 H6           6.8270     1.3870   -22.7270 ha         1 WDA       0.122500
     34 H7           1.2820     6.3220   -22.8820 h1         1 WDA       0.054700
     35 H8           1.3410     5.7900   -24.5650 h1         1 WDA       0.054700
     36 H9           1.1990     4.6000   -23.2620 h1         1 WDA       0.054700
     37 H10          6.8910     7.0890   -21.8370 h1         1 WDA       0.058033
     38 H11          5.7020     8.3290   -22.2510 h1         1 WDA       0.058033
     39 H12          5.4910     7.3460   -20.7910 h1         1 WDA       0.058033
     40 H13          8.1840     3.5350   -24.1830 h5         1 WDA       0.061100
     41 H14          3.6630     0.7770   -25.5450 ha         1 WDA       0.122500
     42 H15          1.9330    -1.3470   -19.9160 hc         1 WDA       0.116700
     43 H16          5.7960    -0.2330   -21.2150 ha         1 WDA       0.124000
     44 H17          4.1760     2.0060   -19.3030 hn         1 WDA       0.351500
     45 H18          1.2640     2.0470   -22.1030 hn         1 WDA       0.351500
     46 O29          3.0230     3.6410   -24.8070 o          1 WDA      -0.550000
     47 C01          1.6450     5.5500   -23.5480 c3         1 WDA       0.091300
     48 C05          5.8350     7.3380   -21.8220 c3         1 WDA       0.102300
@<TRIPOS>BOND
     1     1    11 1   
     2     1    21 1   
     3     1    28 1   
     4     1    29 1   
     5     2    12 ar  
     6     2    13 ar  
     7     2    30 1   
     8     3    13 1   
     9     3    14 1   
    10     3    31 1   
    11     3    32 1   
    12     4    14 1   
    13     4    22 1   
    14     4    26 2   
    15     5    14 1   
    16     5    23 1   
    17     5    24 2   
    18     6    11 ar  
    19     6    16 ar  
    20     6    33 1   
    21     7    17 1   
    22     7    18 1   
    23     7    46 2   
    24     8    18 1   
    25     8    19 1   
    26     8    27 2   
    27     9    17 2   
    28     9    19 1   
    29     9    20 1   
    30    10    20 2   
    31    10    21 1   
    32    10    40 1   
    33    11    12 ar  
    34    12    41 1   
    35    13    16 ar  
    36    14    42 1   
    37    15    22 1   
    38    15    23 1   
    39    15    25 2   
    40    16    43 1   
    41    17    21 1   
    42    18    47 1   
    43    19    48 1   
    44    22    44 1   
    45    23    45 1   
    46    34    47 1   
    47    35    47 1   
    48    36    47 1   
    49    37    48 1   
    50    38    48 1   
    51    39    48 1   
@<TRIPOS>SUBSTRUCTURE
     1 WDA         1 TEMP              0 ****  ****    0 ROOT
