@<TRIPOS>MOLECULE
WDA
   48    51     1     0     0
SMALL
No Charge or Current Charge


@<TRIPOS>ATOM
      1 C10          5.9320     2.2950   -25.1190 c3         1 WDA       0.127900
      2 C13          3.5420    -0.3550   -23.7090 ca         1 WDA      -0.105500
      3 C15          3.4360    -1.5850   -21.4860 c3         1 WDA      -0.012100
      4 C17          3.2740     0.0560   -19.5650 c          1 WDA       0.589500
      5 C21          1.4010    -0.0980   -21.2500 c          1 WDA       0.589500
      6 C26          5.9380     0.9100   -22.9790 ca         1 WDA      -0.079500
      7 C28          3.7280     4.4820   -24.0770 c          1 WDA       0.639600
      8 C03          3.8380     6.5730   -22.7500 c          1 WDA       0.629000
      9 C06          5.8720     5.4210   -23.3060 cc         1 WDA       0.440900
     10 C08          7.3830     4.0810   -24.0210 cd         1 WDA       0.444400
     11 C11          5.3290     1.2280   -24.2090 ca         1 WDA      -0.112300
     12 C12          4.1380     0.5750   -24.5760 ca         1 WDA      -0.079500
     13 C14          4.1310    -0.6460   -22.4640 ca         1 WDA      -0.096300
     14 C16          2.4800    -0.8490   -20.4890 c6         1 WDA      -0.240700
     15 C19          2.5730     2.0070   -20.8540 c          1 WDA       0.639000
     16 C25          5.3440    -0.0240   -22.1140 ca         1 WDA      -0.105500
     17 C27          5.1890     4.4610   -23.9620 cd         1 WDA      -0.341600
     18 N02          3.1240     5.5680   -23.4280 n          1 WDA      -0.363400
     19 N04          5.2390     6.4770   -22.6960 n          1 WDA      -0.358300
     20 N07          7.2170     5.2100   -23.3370 nc         1 WDA      -0.705000
     21 N09          6.1540     3.5730   -24.4220 na         1 WDA      -0.118500
     22 N18          3.3240     1.3680   -19.9220 ns         1 WDA      -0.474000
     23 N20          1.6330     1.2280   -21.4470 ns         1 WDA      -0.474000
     24 O22          0.3650    -0.6260   -21.6150 o          1 WDA      -0.503500
     25 O23          2.6960     3.1900   -21.0970 o          1 WDA      -0.528000
     26 O24          3.7900    -0.3450   -18.5360 o          1 WDA      -0.503500
     27 O30          3.2580     7.5160   -22.2260 o          1 WDA      -0.556000
     28 H1           5.2710     2.4770   -25.9750 h1         1 WDA       0.076700
     29 H2           6.8900     1.9320   -25.5140 h1         1 WDA       0.076700
     30 H3           2.6070    -0.8310   -23.9970 ha         1 WDA       0.124000
     31 H4           2.8690    -2.3400   -22.0460 hc         1 WDA       0.075200
     32 H5           4.1890    -2.1550   -20.9250 hc         1 WDA       0.075200
     33 H6           6.8630     1.3980   -22.6820 ha         1 WDA       0.122500
     34 H7           1.2570     6.0580   -22.5150 h1         1 WDA       0.054700
     35 H8           1.3430     6.3550   -24.2750 h1         1 WDA       0.054700
     36 H9           1.1760     4.6940   -23.6380 h1         1 WDA       0.054700
     37 H10          7.0540     7.2720   -21.8740 h1         1 WDA       0.058033
     38 H11          5.9220     8.4790   -22.5380 h1         1 WDA       0.058033
     39 H12          5.5750     7.6800   -20.9780 h1         1 WDA       0.058033
     40 H13          8.3200     3.5830   -24.2420 h5         1 WDA       0.061100
     41 H14          3.6540     0.8090   -25.5230 ha         1 WDA       0.122500
     42 H15          2.0170    -1.6500   -19.9000 hc         1 WDA       0.116700
     43 H16          5.8180    -0.2430   -21.1600 ha         1 WDA       0.124000
     44 H17          3.9340     1.9550   -19.3750 hn         1 WDA       0.351500
     45 H18          0.9810     1.7100   -22.0450 hn         1 WDA       0.351500
     46 O29          3.0970     3.6400   -24.7000 o          1 WDA      -0.550000
     47 C01          1.6410     5.6730   -23.4690 c3         1 WDA       0.091300
     48 C05          5.9950     7.5360   -21.9820 c3         1 WDA       0.102300
@<TRIPOS>BOND
     1     1    11 1   
     2     1    21 1   
     3     1    28 1   
     4     1    29 1   
     5     2    12 ar  
     6     2    13 ar  
     7     2    30 1   
     8     3    13 1   
     9     3    14 1   
    10     3    31 1   
    11     3    32 1   
    12     4    14 1   
    13     4    22 1   
    14     4    26 2   
    15     5    14 1   
    16     5    23 1   
    17     5    24 2   
    18     6    11 ar  
    19     6    16 ar  
    20     6    33 1   
    21     7    17 1   
    22     7    18 1   
    23     7    46 2   
    24     8    18 1   
    25     8    19 1   
    26     8    27 2   
    27     9    17 2   
    28     9    19 1   
    29     9    20 1   
    30    10    20 2   
    31    10    21 1   
    32    10    40 1   
    33    11    12 ar  
    34    12    41 1   
    35    13    16 ar  
    36    14    42 1   
    37    15    22 1   
    38    15    23 1   
    39    15    25 2   
    40    16    43 1   
    41    17    21 1   
    42    18    47 1   
    43    19    48 1   
    44    22    44 1   
    45    23    45 1   
    46    34    47 1   
    47    35    47 1   
    48    36    47 1   
    49    37    48 1   
    50    38    48 1   
    51    39    48 1   
@<TRIPOS>SUBSTRUCTURE
     1 WDA         1 TEMP              0 ****  ****    0 ROOT
