@<TRIPOS>MOLECULE
WDC
   29    29     1     0     0
SMALL
No Charge or Current Charge


@<TRIPOS>ATOM
      1 N1          27.2270    14.0100    36.7830 nv         1 WDC      -1.071000
      2 C7          29.2410    15.3100    36.7750 ca         1 WDC      -0.165000
      3 C8          30.0580    16.2840    37.3760 ca         1 WDC      -0.065000
      4 C9          29.6660    16.8950    38.5800 ca         1 WDC       0.091000
      5 C1          27.5840    15.0780    41.8230 c3         1 WDC       0.163800
      6 C5          27.6320    15.5560    38.5740 ca         1 WDC      -0.166000
      7 C6          28.0270    14.9500    37.3730 ca         1 WDC       0.290000
      8 C4          28.4480    16.5250    39.2020 ca         1 WDC      -0.070300
      9 C3          27.9730    17.1670    40.5130 c3         1 WDC       0.223100
     10 C2          27.6250    14.3750    43.2090 c3         1 WDC       0.159600
     11 N           28.2880    16.3920    41.7480 n3         1 WDC      -0.731600
     12 C           29.7420    16.3110    42.0300 c3         1 WDC       0.153100
     13 O           26.8120    13.1890    43.2020 oh         1 WDC      -0.674000
     14 H1          26.2870    13.8460    37.1390 hn         1 WDC       0.450500
     15 H2          27.4430    13.6690    35.8480 hn         1 WDC       0.450500
     16 H3          29.5540    14.8450    35.8450 ha         1 WDC       0.118000
     17 H4          30.9950    16.5700    36.9050 ha         1 WDC       0.128000
     18 H5          26.5270    15.2220    41.5630 h1         1 WDC       0.045200
     19 H6          28.0060    14.3870    41.0800 h1         1 WDC       0.045200
     20 H7          26.6860    15.2740    39.0270 ha         1 WDC       0.117000
     21 H8          28.3890    18.1800    40.5950 h1         1 WDC       0.064700
     22 H9          26.8860    17.3090    40.4430 h1         1 WDC       0.064700
     23 H10         28.6630    14.1150    43.4570 h1         1 WDC       0.027700
     24 H11         27.2630    15.0760    43.9730 h1         1 WDC       0.027700
     25 H13         29.9330    15.8820    43.0220 h1         1 WDC       0.035033
     26 H14         30.2550    15.6900    41.2820 h1         1 WDC       0.035033
     27 H15         30.1950    17.3110    42.0160 h1         1 WDC       0.035033
     28 H16         26.8670    12.8000    44.1030 ho         1 WDC       0.443000
     29 Cl          30.7250    18.1310    39.2610 cl         1 WDC      -0.225000
@<TRIPOS>BOND
     1     1     7 1   
     2     1    14 1   
     3     1    15 1   
     4     2     3 ar  
     5     2     7 ar  
     6     2    16 1   
     7     3     4 ar  
     8     3    17 1   
     9     4     8 ar  
    10     4    29 1   
    11     5    10 1   
    12     5    11 1   
    13     5    18 1   
    14     5    19 1   
    15     6     7 ar  
    16     6     8 ar  
    17     6    20 1   
    18     8     9 1   
    19     9    11 1   
    20     9    21 1   
    21     9    22 1   
    22    10    13 1   
    23    10    23 1   
    24    10    24 1   
    25    11    12 1   
    26    12    25 1   
    27    12    26 1   
    28    12    27 1   
    29    13    28 1   
@<TRIPOS>SUBSTRUCTURE
     1 WDC         1 TEMP              0 ****  ****    0 ROOT
