@<TRIPOS>MOLECULE
WDC
   29    29     1     0     0
SMALL
abcg2


@<TRIPOS>ATOM
      1 N1          27.3180    13.9020    36.8500 nv         1 WDC      -1.071000
      2 C7          29.2440    15.3750    36.7780 ca         1 WDC      -0.165000
      3 C8          30.0030    16.3780    37.3570 ca         1 WDC      -0.065000
      4 C9          29.6090    16.9460    38.5630 ca         1 WDC       0.091000
      5 C1          27.6460    15.0180    41.8220 c3         1 WDC       0.163800
      6 C5          27.6880    15.5350    38.6020 ca         1 WDC      -0.166000
      7 C6          28.0650    14.9380    37.3950 ca         1 WDC       0.290000
      8 C4          28.4470    16.5320    39.2170 ca         1 WDC      -0.070300
      9 C3          27.9880    17.0900    40.5540 c3         1 WDC       0.223100
     10 C2          27.5520    14.5090    43.2530 c3         1 WDC       0.159600
     11 N           28.3420    16.2970    41.7380 n3         1 WDC      -0.731600
     12 C           29.7820    16.1700    41.9270 c3         1 WDC       0.153100
     13 O           26.7820    13.3030    43.2230 oh         1 WDC      -0.674000
     14 H1          26.3520    13.8640    37.1420 hn         1 WDC       0.450500
     15 H2          27.4190    13.7730    35.8540 hn         1 WDC       0.450500
     16 H3          29.5560    14.9350    35.8380 ha         1 WDC       0.118000
     17 H4          30.9030    16.7250    36.8680 ha         1 WDC       0.128000
     18 H5          26.6280    15.1560    41.4530 h1         1 WDC       0.045200
     19 H6          28.1150    14.2430    41.1970 h1         1 WDC       0.045200
     20 H7          26.7670    15.2160    39.0740 ha         1 WDC       0.117000
     21 H8          28.4000    18.0890    40.6920 h1         1 WDC       0.064700
     22 H9          26.9010    17.1800    40.5360 h1         1 WDC       0.064700
     23 H10         28.5430    14.3100    43.6680 h1         1 WDC       0.027700
     24 H11         27.0640    15.2670    43.8750 h1         1 WDC       0.027700
     25 H13         29.9930    15.7070    42.8900 h1         1 WDC       0.035033
     26 H14         30.2640    15.5620    41.1450 h1         1 WDC       0.035033
     27 H15         30.2400    17.1580    41.9190 h1         1 WDC       0.035033
     28 H16         26.7760    12.9250    44.1110 ho         1 WDC       0.443000
     29 CL          30.6130    18.2450    39.2060 cl         1 WDC      -0.225000
@<TRIPOS>BOND
     1     1     7 1   
     2     1    14 1   
     3     1    15 1   
     4     2     3 ar  
     5     2     7 ar  
     6     2    16 1   
     7     3     4 ar  
     8     3    17 1   
     9     4     8 ar  
    10     4    29 1   
    11     5    10 1   
    12     5    11 1   
    13     5    18 1   
    14     5    19 1   
    15     6     7 ar  
    16     6     8 ar  
    17     6    20 1   
    18     8     9 1   
    19     9    11 1   
    20     9    21 1   
    21     9    22 1   
    22    10    13 1   
    23    10    23 1   
    24    10    24 1   
    25    11    12 1   
    26    12    25 1   
    27    12    26 1   
    28    12    27 1   
    29    13    28 1   
@<TRIPOS>SUBSTRUCTURE
     1 WDC         1 TEMP              0 ****  ****    0 ROOT
