@<TRIPOS>MOLECULE
WDD
   42    44     1     0     0
SMALL
No Charge or Current Charge


@<TRIPOS>ATOM
      1 C10         31.0930     0.6190     4.6250 c3         1 WDD       0.252800
      2 C11         31.9760     1.3460     3.5600 c3         1 WDD       0.140800
      3 C13         32.1350     3.6290     4.6140 c6         1 WDD       0.127800
      4 C14         33.1090     4.7590     5.0660 c6         1 WDD       0.152100
      5 C16         34.7560     4.0410     3.4660 c6         1 WDD       0.152100
      6 C17         33.8150     2.9030     2.9710 c6         1 WDD       0.127800
      7 C19         26.7730     2.2130     3.6400 cc         1 WDD      -0.377600
      8 C20         25.4440     2.7900     3.4680 c          1 WDD       0.638600
      9 C03         25.4170     1.6380     1.2790 c          1 WDD       0.615000
     10 C06         27.3490     1.4270     2.6930 cd         1 WDD       0.482900
     11 C08         28.7670     1.5460     4.2780 cc         1 WDD       0.740400
     12 N02         24.8310     2.4650     2.2520 n          1 WDD      -0.372400
     13 N04         26.7050     1.1320     1.5190 n          1 WDD      -0.361300
     14 N07         28.5960     1.0090     3.1000 nd         1 WDD      -0.780000
     15 N09         29.8810     1.3740     5.0210 nu         1 WDD      -0.949100
     16 N12         32.8650     2.4520     4.0370 n3         1 WDD      -0.722600
     17 N18         27.7000     2.2860     4.6710 na         1 WDD      -0.307500
     18 O15         33.9760     5.1480     3.9750 os         1 WDD      -0.446000
     19 O22         24.8220     1.3600     0.2460 o          1 WDD      -0.558000
     20 H101        30.7900    -0.3500     4.2060 h1         1 WDD       0.062700
     21 H102        31.7130     0.4030     5.5060 h1         1 WDD       0.062700
     22 H112        31.3230     1.7090     2.7550 h1         1 WDD       0.050200
     23 H111        32.6080     0.5690     3.1110 h1         1 WDD       0.050200
     24 H132        31.5470     3.3290     5.4910 h1         1 WDD       0.040950
     25 H131        31.4310     4.0420     3.8750 h1         1 WDD       0.040950
     26 H142        33.7220     4.4100     5.9090 h1         1 WDD       0.050450
     27 H141        32.5350     5.6350     5.4000 h1         1 WDD       0.050450
     28 H162        35.3850     4.3950     2.6360 h1         1 WDD       0.050450
     29 H161        35.4170     3.6650     4.2600 h1         1 WDD       0.050450
     30 H172        33.2580     3.2660     2.0940 h1         1 WDD       0.040950
     31 H171        34.4340     2.0600     2.6300 h1         1 WDD       0.040950
     32 H013        23.2640     3.8970     2.5850 h1         1 WDD       0.056700
     33 H011        23.3730     3.2890     0.9270 h1         1 WDD       0.056700
     34 H012        22.7200     2.2370     2.2160 h1         1 WDD       0.056700
     35 H051        28.3890     0.0710     0.7290 h1         1 WDD       0.057367
     36 H052        26.8030    -0.6930     0.4450 h1         1 WDD       0.057367
     37 H053        27.2860     0.7530    -0.4880 h1         1 WDD       0.057367
     38 H091        29.8600     1.8120     5.9380 hn         1 WDD       0.500000
     39 H181        27.6220     2.7830     5.5470 hn         1 WDD       0.371000
     40 O21         24.9220     3.4920     4.3230 o          1 WDD      -0.549000
     41 C01         23.4700     3.0040     1.9830 c3         1 WDD       0.085300
     42 C05         27.3350     0.2650     0.4940 c3         1 WDD       0.102300
@<TRIPOS>BOND
     1     1     2 1   
     2     1    15 1   
     3     1    20 1   
     4     1    21 1   
     5     2    16 1   
     6     2    22 1   
     7     2    23 1   
     8     3     4 1   
     9     3    16 1   
    10     3    24 1   
    11     3    25 1   
    12     4    18 1   
    13     4    26 1   
    14     4    27 1   
    15     5     6 1   
    16     5    18 1   
    17     5    28 1   
    18     5    29 1   
    19     6    16 1   
    20     6    30 1   
    21     6    31 1   
    22     7     8 1   
    23     7    10 2   
    24     7    17 1   
    25     8    12 1   
    26     8    40 2   
    27     9    12 1   
    28     9    13 1   
    29     9    19 2   
    30    10    13 1   
    31    10    14 1   
    32    11    14 2   
    33    11    15 1   
    34    11    17 1   
    35    12    41 1   
    36    13    42 1   
    37    15    38 1   
    38    17    39 1   
    39    32    41 1   
    40    33    41 1   
    41    34    41 1   
    42    35    42 1   
    43    36    42 1   
    44    37    42 1   
@<TRIPOS>SUBSTRUCTURE
     1 WDD         1 TEMP              0 ****  ****    0 ROOT
