@<TRIPOS>MOLECULE
WDD
   42    44     1     0     0
SMALL
abcg2


@<TRIPOS>ATOM
      1 C10         31.0590     0.7420     4.4790 c3         1 WDD       0.252800
      2 C11         31.9410     1.4580     3.4620 c3         1 WDD       0.140800
      3 C13         32.0690     3.7650     4.2070 c6         1 WDD       0.127800
      4 C14         33.0010     4.8100     4.7910 c6         1 WDD       0.152100
      5 C16         34.8340     3.8040     3.7890 c6         1 WDD       0.152100
      6 C17         33.9430     2.7420     3.1740 c6         1 WDD       0.127800
      7 C19         26.7520     2.2090     3.7030 cc         1 WDD      -0.377600
      8 C20         25.4350     2.7020     3.6220 c          1 WDD       0.638600
      9 C03         25.4130     1.6340     1.3700 c          1 WDD       0.615000
     10 C06         27.3550     1.4830     2.7120 cd         1 WDD       0.482900
     11 C08         28.7900     1.6220     4.2560 cc         1 WDD       0.740400
     12 N02         24.8320     2.3650     2.3930 n          1 WDD      -0.372400
     13 N04         26.7030     1.1940     1.5490 n          1 WDD      -0.361300
     14 N07         28.6050     1.1170     3.0340 nd         1 WDD      -0.780000
     15 N09         29.9120     1.4760     4.9680 nu         1 WDD      -0.949100
     16 N12         32.7770     2.5100     4.0110 n3         1 WDD      -0.722600
     17 N18         27.7090     2.2910     4.7030 na         1 WDD      -0.307500
     18 O15         34.1380     5.0140     3.9850 os         1 WDD      -0.446000
     19 O22         24.8040     1.3880     0.3450 o          1 WDD      -0.558000
     20 H101        30.7130    -0.1910     4.0290 h1         1 WDD       0.062700
     21 H102        31.6610     0.4720     5.3460 h1         1 WDD       0.062700
     22 H112        31.3310     1.8150     2.6170 h1         1 WDD       0.050200
     23 H111        32.6030     0.6910     3.0540 h1         1 WDD       0.050200
     24 H132        31.2400     3.6290     4.9000 h1         1 WDD       0.040950
     25 H131        31.6410     4.1360     3.2590 h1         1 WDD       0.040950
     26 H142        33.3000     4.5010     5.8030 h1         1 WDD       0.050450
     27 H141        32.4820     5.7660     4.8730 h1         1 WDD       0.050450
     28 H162        35.6760     4.0140     3.1290 h1         1 WDD       0.050450
     29 H161        35.2370     3.4340     4.7430 h1         1 WDD       0.050450
     30 H172        33.6600     3.0500     2.1530 h1         1 WDD       0.040950
     31 H171        34.5140     1.8150     3.0850 h1         1 WDD       0.040950
     32 H013        23.1340     3.3930     2.9940 h1         1 WDD       0.056700
     33 H011        23.4130     3.4180     1.2500 h1         1 WDD       0.056700
     34 H012        22.7990     1.9520     2.0300 h1         1 WDD       0.056700
     35 H051        28.3410     0.1750     0.8040 h1         1 WDD       0.057367
     36 H052        26.7850    -0.4720     0.2690 h1         1 WDD       0.057367
     37 H053        27.4060     1.0350    -0.4250 h1         1 WDD       0.057367
     38 H091        29.9550     1.8930     5.8820 hn         1 WDD       0.500000
     39 H181        27.6060     2.7420     5.5980 hn         1 WDD       0.371000
     40 O21         24.8430     3.3430     4.4790 o          1 WDD      -0.549000
     41 C01         23.4660     2.8040     2.1470 c3         1 WDD       0.085300
     42 C05         27.3390     0.4400     0.4830 c3         1 WDD       0.102300
@<TRIPOS>BOND
     1     1     2 1   
     2     1    15 1   
     3     1    20 1   
     4     1    21 1   
     5     2    16 1   
     6     2    22 1   
     7     2    23 1   
     8     3     4 1   
     9     3    16 1   
    10     3    24 1   
    11     3    25 1   
    12     4    18 1   
    13     4    26 1   
    14     4    27 1   
    15     5     6 1   
    16     5    18 1   
    17     5    28 1   
    18     5    29 1   
    19     6    16 1   
    20     6    30 1   
    21     6    31 1   
    22     7     8 1   
    23     7    10 2   
    24     7    17 1   
    25     8    12 1   
    26     8    40 2   
    27     9    12 1   
    28     9    13 1   
    29     9    19 2   
    30    10    13 1   
    31    10    14 1   
    32    11    14 2   
    33    11    15 1   
    34    11    17 1   
    35    12    41 1   
    36    13    42 1   
    37    15    38 1   
    38    17    39 1   
    39    32    41 1   
    40    33    41 1   
    41    34    41 1   
    42    35    42 1   
    43    36    42 1   
    44    37    42 1   
@<TRIPOS>SUBSTRUCTURE
     1 WDD         1 TEMP              0 ****  ****    0 ROOT
