@<TRIPOS>MOLECULE
WDE
   39    41     1     0     0
SMALL
No Charge or Current Charge


@<TRIPOS>ATOM
      1 C11          5.4140     9.2180    18.7750 c2         1 WDE       0.375600
      2 C15          5.7810     8.1610    21.0520 ca         1 WDE       0.299000
      3 C16          6.9360     8.0890    21.8490 ca         1 WDE      -0.120000
      4 C17          7.0930     7.0470    22.7810 ca         1 WDE      -0.097000
      5 C18          6.0870     6.0770    22.9230 ca         1 WDE      -0.131000
      6 C19          4.9240     6.1510    22.1390 ca         1 WDE      -0.097000
      7 C20          4.7710     7.1950    21.2090 ca         1 WDE      -0.120000
      8 C21          6.6540     5.4450    17.3480 c3         1 WDE      -0.213400
      9 C22          6.6520     5.6740    15.8330 c          1 WDE       0.710000
     10 C1           4.9480     9.8650    15.5370 ca         1 WDE      -0.061000
     11 C2           4.8250    10.4780    14.2680 ca         1 WDE      -0.126000
     12 C3           5.0230    11.8690    14.1090 ca         1 WDE      -0.110000
     13 C4           5.3490    12.6700    15.2210 ca         1 WDE      -0.156000
     14 C5           5.4640    12.0380    16.4620 ca         1 WDE       0.022600
     15 C6           5.2730    10.6750    16.6440 ca         1 WDE      -0.045800
     16 N7           5.7750    12.5830    17.7010 ns         1 WDE      -0.392100
     17 C8           5.8150    11.6850    18.7260 c          1 WDE       0.569200
     18 C9           5.4790    10.3890    18.0800 cc         1 WDE      -0.304400
     19 O10          6.0880    11.9330    19.8930 o          1 WDE      -0.632000
     20 N12          5.6440     9.2040    20.1390 nu         1 WDE      -0.834000
     21 S13          5.0490     7.6680    17.9740 ss         1 WDE      -0.316600
     22 C14          6.6720     6.7940    18.0940 c3         1 WDE       0.113600
     23 O23          5.5830     5.6740    15.2420 o          1 WDE      -0.731500
     24 O24          7.7290     5.8470    15.2820 o          1 WDE      -0.731500
     25 H33          7.7180     8.8360    21.7410 ha         1 WDE       0.127000
     26 H34          7.9920     6.9930    23.3910 ha         1 WDE       0.109500
     27 H35          6.2070     5.2700    23.6430 ha         1 WDE       0.106000
     28 H36          4.1410     5.4040    22.2530 ha         1 WDE       0.109500
     29 H37          3.8660     7.2560    20.6120 ha         1 WDE       0.127000
     30 H39          7.5880     4.9550    17.6470 hc         1 WDE       0.040200
     31 H38          5.7530     4.9120    17.6750 hc         1 WDE       0.040200
     32 H25          4.7910     8.7960    15.6230 ha         1 WDE       0.176000
     33 H26          4.5750     9.8690    13.4020 ha         1 WDE       0.122000
     34 H27          4.9250    12.3220    13.1250 ha         1 WDE       0.098000
     35 H28          5.5060    13.7410    15.1170 ha         1 WDE       0.100000
     36 H29          5.9750    13.5650    17.8380 hn         1 WDE       0.323500
     37 H30          5.9940    10.1090    20.4720 hn         1 WDE       0.538000
     38 H31          7.4600     7.4400    17.6840 h1         1 WDE       0.056700
     39 H32          6.8960     6.6160    19.1530 h1         1 WDE       0.056700
@<TRIPOS>BOND
     1     1    18 2   
     2     1    20 1   
     3     1    21 1   
     4     2     3 ar  
     5     2     7 ar  
     6     2    20 1   
     7     3     4 ar  
     8     3    25 1   
     9     4     5 ar  
    10     4    26 1   
    11     5     6 ar  
    12     5    27 1   
    13     6     7 ar  
    14     6    28 1   
    15     7    29 1   
    16     8     9 1   
    17     8    22 1   
    18     8    30 1   
    19     8    31 1   
    20     9    23 1   
    21     9    24 1   
    22    10    11 ar  
    23    10    15 ar  
    24    10    32 1   
    25    11    12 ar  
    26    11    33 1   
    27    12    13 ar  
    28    12    34 1   
    29    13    14 ar  
    30    13    35 1   
    31    14    15 ar  
    32    14    16 1   
    33    15    18 1   
    34    16    17 1   
    35    16    36 1   
    36    17    18 1   
    37    17    19 2   
    38    20    37 1   
    39    21    22 1   
    40    22    38 1   
    41    22    39 1   
@<TRIPOS>SUBSTRUCTURE
     1 WDE         1 TEMP              0 ****  ****    0 ROOT
