@<TRIPOS>MOLECULE
WDE
   39    41     1     0     0
SMALL
abcg2


@<TRIPOS>ATOM
      1 C11          5.6630     9.0410    18.9470 c2         1 WDE       0.375600
      2 C15          5.6940     8.1280    21.2700 ca         1 WDE       0.299000
      3 C16          6.6250     8.1360    22.3120 ca         1 WDE      -0.120000
      4 C17          6.5440     7.1910    23.3250 ca         1 WDE      -0.097000
      5 C18          5.5390     6.2270    23.3070 ca         1 WDE      -0.131000
      6 C19          4.6030     6.2300    22.2780 ca         1 WDE      -0.097000
      7 C20          4.6690     7.1820    21.2680 ca         1 WDE      -0.120000
      8 C21          7.1570     5.9450    16.6690 c3         1 WDE      -0.213400
      9 C22          6.0660     5.3540    15.7490 c          1 WDE       0.710000
     10 C1           5.0230     9.6930    15.6980 ca         1 WDE      -0.061000
     11 C2           4.8410    10.3010    14.4550 ca         1 WDE      -0.126000
     12 C3           5.1080    11.6560    14.2680 ca         1 WDE      -0.110000
     13 C4           5.5520    12.4450    15.3300 ca         1 WDE      -0.156000
     14 C5           5.7260    11.8330    16.5590 ca         1 WDE       0.022600
     15 C6           5.4820    10.4540    16.7720 ca         1 WDE      -0.045800
     16 N7           6.1180    12.4060    17.7640 ns         1 WDE      -0.392100
     17 C8           6.1140    11.4830    18.7800 c          1 WDE       0.569200
     18 C9           5.7420    10.1950    18.1820 cc         1 WDE      -0.304400
     19 O10          6.3850    11.7450    19.9660 o          1 WDE      -0.632000
     20 N12          5.7890     9.1320    20.2880 nu         1 WDE      -0.834000
     21 S13          5.4710     7.4340    18.2220 ss         1 WDE      -0.316600
     22 C14          6.9410     7.3810    17.1170 c3         1 WDE       0.113600
     23 O23          6.0020     4.0990    15.7070 o          1 WDE      -0.731500
     24 O24          5.3550     6.1590    15.0960 o          1 WDE      -0.731500
     25 H33          7.4120     8.8800    22.3120 ha         1 WDE       0.127000
     26 H34          7.2720     7.2040    24.1260 ha         1 WDE       0.109500
     27 H35          5.4810     5.4870    24.0950 ha         1 WDE       0.106000
     28 H36          3.8070     5.4970    22.2650 ha         1 WDE       0.109500
     29 H37          3.9110     7.2070    20.4970 ha         1 WDE       0.127000
     30 H39          8.0940     5.9180    16.1010 hc         1 WDE       0.040200
     31 H38          7.2970     5.2850    17.5270 hc         1 WDE       0.040200
     32 H25          4.8100     8.6400    15.8110 ha         1 WDE       0.176000
     33 H26          4.4890     9.7050    13.6230 ha         1 WDE       0.122000
     34 H27          4.9640    12.1060    13.2940 ha         1 WDE       0.098000
     35 H28          5.7490    13.5020    15.2030 ha         1 WDE       0.100000
     36 H29          6.3190    13.3840    17.9070 hn         1 WDE       0.323500
     37 H30          6.0330    10.0770    20.6020 hn         1 WDE       0.538000
     38 H31          6.7810     8.0320    16.2640 h1         1 WDE       0.056700
     39 H32          7.7850     7.7410    17.7020 h1         1 WDE       0.056700
@<TRIPOS>BOND
     1     1    18 2   
     2     1    20 1   
     3     1    21 1   
     4     2     3 ar  
     5     2     7 ar  
     6     2    20 1   
     7     3     4 ar  
     8     3    25 1   
     9     4     5 ar  
    10     4    26 1   
    11     5     6 ar  
    12     5    27 1   
    13     6     7 ar  
    14     6    28 1   
    15     7    29 1   
    16     8     9 1   
    17     8    22 1   
    18     8    30 1   
    19     8    31 1   
    20     9    23 1   
    21     9    24 1   
    22    10    11 ar  
    23    10    15 ar  
    24    10    32 1   
    25    11    12 ar  
    26    11    33 1   
    27    12    13 ar  
    28    12    34 1   
    29    13    14 ar  
    30    13    35 1   
    31    14    15 ar  
    32    14    16 1   
    33    15    18 1   
    34    16    17 1   
    35    16    36 1   
    36    17    18 1   
    37    17    19 2   
    38    20    37 1   
    39    21    22 1   
    40    22    38 1   
    41    22    39 1   
@<TRIPOS>SUBSTRUCTURE
     1 WDE         1 TEMP              0 ****  ****    0 ROOT
