@<TRIPOS>MOLECULE
WDG
   45    47     1     0     0
SMALL
bcc


@<TRIPOS>ATOM
      1 C10         29.3540    -0.4160    -0.1660 c3         1 WDG      -0.018300
      2 N12         31.4290    -1.4750    -0.9500 n3         1 WDG      -0.714600
      3 C13         32.0820    -2.7640    -1.1260 c6         1 WDG       0.161800
      4 C15         34.2170    -1.6430    -1.8310 c6         1 WDG      -0.190700
      5 C20         32.3980    -0.4640    -0.5550 c6         1 WDG       0.161800
      6 C22         26.2070     2.6260     0.1490 cc         1 WDG      -0.367200
      7 C03         24.0320     3.9780     1.2060 c          1 WDG       0.838500
      8 C06         25.4850     2.1100     1.1880 cd         1 WDG       0.503200
      9 C08         27.0200     0.7170     0.8130 cc         1 WDG       0.560800
     10 C11         30.3320    -1.5760    -0.0130 c3         1 WDG       0.179800
     11 C14         33.1760    -2.7010    -2.1770 c6         1 WDG      -0.052400
     12 C16         35.3670    -1.5480    -2.8600 c          1 WDG       0.934600
     13 C19         33.5050    -0.3170    -1.5870 c6         1 WDG      -0.052400
     14 C23         25.9000     3.8730    -0.4520 c          1 WDG       0.774100
     15 N02         24.7910     4.4810     0.1500 n          1 WDG      -0.510400
     16 N04         24.4080     2.7560     1.7150 n          1 WDG      -0.427300
     17 N07         25.9790     0.9310     1.6040 nd         1 WDG      -0.698000
     18 N21         27.2020     1.7020    -0.0800 na         1 WDG      -0.252900
     19 O17         35.6390    -2.5850    -3.4990 o          1 WDG      -0.839300
     20 O18         35.9540    -0.4500    -2.9520 o          1 WDG      -0.839300
     21 O24         26.4900     4.4020    -1.3770 o          1 WDG      -0.607500
     22 S09         27.9770    -0.7170     0.9850 ss         1 WDG      -0.248400
     23 H101        29.8150     0.5390     0.0860 h1         1 WDG       0.073200
     24 H102        28.9800    -0.3790    -1.1900 h1         1 WDG       0.073200
     25 H132        31.3250    -3.4970    -1.4180 h1         1 WDG       0.011200
     26 H131        32.5180    -3.1200    -0.1740 h1         1 WDG       0.011200
     27 H151        34.6790    -1.9420    -0.8760 hc         1 WDG       0.021700
     28 H201        32.8430    -0.7160     0.4250 h1         1 WDG       0.011200
     29 H202        31.8920     0.4960    -0.4310 h1         1 WDG       0.011200
     30 H012        23.5670     6.1690     0.1450 h1         1 WDG       0.055700
     31 H013        25.2420     6.4790    -0.3190 h1         1 WDG       0.055700
     32 H011        24.1410     5.6790    -1.4510 h1         1 WDG       0.055700
     33 H051        22.8620     2.7850     3.1090 h1         1 WDG       0.057033
     34 H052        23.2940     1.1750     2.5180 h1         1 WDG       0.057033
     35 H053        24.3480     2.0100     3.6720 h1         1 WDG       0.057033
     36 H111        29.7940    -2.5060    -0.2140 h1         1 WDG       0.035700
     37 H112        30.6810    -1.6320     1.0320 h1         1 WDG       0.035700
     38 H141        32.7270    -2.4730    -3.1490 hc         1 WDG       0.050700
     39 H142        33.6370    -3.6860    -2.2630 hc         1 WDG       0.050700
     40 H191        34.2080     0.4430    -1.2450 hc         1 WDG       0.050700
     41 H192        33.0720     0.0480    -2.5240 hc         1 WDG       0.050700
     42 H211        27.9100     1.7620    -0.7970 hn         1 WDG       0.334700
     43 C01         24.4140     5.7770    -0.4020 c3         1 WDG       0.085300
     44 C05         23.6870     2.1450     2.8180 c3         1 WDG       0.102300
     45 O25         23.0820     4.5890     1.6570 o          1 WDG      -0.642500
@<TRIPOS>BOND
     1     1    10 1   
     2     1    22 1   
     3     1    23 1   
     4     1    24 1   
     5     2     3 1   
     6     2     5 1   
     7     2    10 1   
     8     3    11 1   
     9     3    25 1   
    10     3    26 1   
    11     4    11 1   
    12     4    12 1   
    13     4    13 1   
    14     4    27 1   
    15     5    13 1   
    16     5    28 1   
    17     5    29 1   
    18     6     8 2   
    19     6    14 1   
    20     6    18 1   
    21     7    15 1   
    22     7    16 1   
    23     7    45 2   
    24     8    16 1   
    25     8    17 1   
    26     9    17 2   
    27     9    18 1   
    28     9    22 1   
    29    10    36 1   
    30    10    37 1   
    31    11    38 1   
    32    11    39 1   
    33    12    19 1   
    34    12    20 1   
    35    13    40 1   
    36    13    41 1   
    37    14    15 1   
    38    14    21 2   
    39    15    43 1   
    40    16    44 1   
    41    18    42 1   
    42    30    43 1   
    43    31    43 1   
    44    32    43 1   
    45    33    44 1   
    46    34    44 1   
    47    35    44 1   
@<TRIPOS>SUBSTRUCTURE
     1 WDG         1 TEMP              0 ****  ****    0 ROOT
