@<TRIPOS>MOLECULE
WDG
   45    47     1     0     0
SMALL
No Charge or Current Charge


@<TRIPOS>ATOM
      1 C10         29.3910    -0.4540     0.0530 c3         1 WDG       0.029600
      2 N12         31.4860    -1.5540    -0.9090 n3         1 WDG      -0.714600
      3 C13         32.2590    -2.8250    -0.9780 c6         1 WDG       0.161800
      4 C15         34.2980    -1.5960    -1.9210 c6         1 WDG      -0.190700
      5 C20         32.3950    -0.3880    -0.6980 c6         1 WDG       0.161800
      6 C22         26.2300     2.6090     0.3160 cc         1 WDG      -0.352600
      7 C03         23.9270     3.9790     1.0780 c          1 WDG       0.629000
      8 C06         25.4020     2.0880     1.2660 cd         1 WDG       0.437900
      9 C08         26.9820     0.6810     1.0350 cc         1 WDG       0.560800
     10 C11         30.3860    -1.6350     0.0870 c3         1 WDG       0.179800
     11 C14         33.3290    -2.7970    -2.0980 c6         1 WDG      -0.052400
     12 C16         35.3680    -1.5290    -3.0370 c          1 WDG       0.724000
     13 C19         33.4740    -0.2850    -1.8070 c6         1 WDG      -0.052400
     14 C23         25.9590     3.8900    -0.3320 c          1 WDG       0.631600
     15 N02         24.7910     4.5220     0.1120 n          1 WDG      -0.376400
     16 N04         24.2650     2.7460     1.6600 n          1 WDG      -0.360300
     17 N07         25.8750     0.8730     1.7170 nd         1 WDG      -0.698000
     18 N21         27.2610     1.6930     0.1630 na         1 WDG      -0.252500
     19 O17         35.0000    -1.3740    -4.1920 o          1 WDG      -0.734000
     20 O18         36.5410    -1.6340    -2.7100 o          1 WDG      -0.734000
     21 O24         26.6960     4.3540    -1.1890 o          1 WDG      -0.532000
     22 S09         27.9910    -0.7470     1.2310 ss         1 WDG      -0.296300
     23 H101        29.9030     0.4730     0.3350 h1         1 WDG       0.073200
     24 H102        28.9930    -0.3510    -0.9650 h1         1 WDG       0.073200
     25 H132        31.5800    -3.6700    -1.1650 h1         1 WDG       0.011200
     26 H131        32.7540    -3.0170    -0.0140 h1         1 WDG       0.011200
     27 H151        34.8310    -1.7370    -0.9700 hc         1 WDG       0.021700
     28 H201        32.8920    -0.4710     0.2790 h1         1 WDG       0.011200
     29 H202        31.8260     0.5510    -0.6940 h1         1 WDG       0.011200
     30 H012        24.0160     6.5060     0.2730 h1         1 WDG       0.055700
     31 H013        25.3010     6.3310    -0.9310 h1         1 WDG       0.055700
     32 H011        23.6730     5.6810    -1.2740 h1         1 WDG       0.055700
     33 H051        23.1700     2.9130     3.4720 h1         1 WDG       0.057033
     34 H052        22.4080     1.8890     2.2210 h1         1 WDG       0.057033
     35 H053        23.8010     1.2810     3.1530 h1         1 WDG       0.057033
     36 H111        29.8090    -2.5530    -0.0900 h1         1 WDG       0.035700
     37 H112        30.8040    -1.7120     1.1000 h1         1 WDG       0.035700
     38 H141        32.8290    -2.7390    -3.0740 hc         1 WDG       0.050700
     39 H142        33.8940    -3.7400    -2.0910 hc         1 WDG       0.050700
     40 H191        34.1410     0.5600    -1.5930 hc         1 WDG       0.050700
     41 H192        32.9850    -0.0620    -2.7650 hc         1 WDG       0.050700
     42 H211        28.0560     1.7490    -0.4610 hn         1 WDG       0.385000
     43 C01         24.4270     5.8340    -0.4910 c3         1 WDG       0.085300
     44 C05         23.3610     2.1710     2.6860 c3         1 WDG       0.102300
     45 O25         22.9020     4.5630     1.4070 o          1 WDG      -0.567000
@<TRIPOS>BOND
     1     1    10 1   
     2     1    22 1   
     3     1    23 1   
     4     1    24 1   
     5     2     3 1   
     6     2     5 1   
     7     2    10 1   
     8     3    11 1   
     9     3    25 1   
    10     3    26 1   
    11     4    11 1   
    12     4    12 1   
    13     4    13 1   
    14     4    27 1   
    15     5    13 1   
    16     5    28 1   
    17     5    29 1   
    18     6     8 2   
    19     6    14 1   
    20     6    18 1   
    21     7    15 1   
    22     7    16 1   
    23     7    45 2   
    24     8    16 1   
    25     8    17 1   
    26     9    17 2   
    27     9    18 1   
    28     9    22 1   
    29    10    36 1   
    30    10    37 1   
    31    11    38 1   
    32    11    39 1   
    33    12    19 1   
    34    12    20 1   
    35    13    40 1   
    36    13    41 1   
    37    14    15 1   
    38    14    21 2   
    39    15    43 1   
    40    16    44 1   
    41    18    42 1   
    42    30    43 1   
    43    31    43 1   
    44    32    43 1   
    45    33    44 1   
    46    34    44 1   
    47    35    44 1   
@<TRIPOS>SUBSTRUCTURE
     1 WDG         1 TEMP              0 ****  ****    0 ROOT
