@<TRIPOS>MOLECULE
WDH
   34    34     1     0     0
SMALL
No Charge or Current Charge


@<TRIPOS>ATOM
      1 N1          24.3220    18.7000    34.9280 nh         1 WDH      -0.776300
      2 C7          24.7650    17.2890    36.9160 ca         1 WDH      -0.286000
      3 C8          24.6560    16.0200    37.5050 ca         1 WDH       0.135900
      4 N2          24.0830    14.9900    36.8550 nb         1 WDH      -0.221000
      5 C9          23.6180    15.2450    35.6160 ca         1 WDH       0.175300
      6 C6          24.2550    17.4600    35.6170 ca         1 WDH       0.397900
      7 N3          23.6780    16.4270    34.9690 nb         1 WDH      -0.279000
      8 C4          25.3110    19.7400    35.2960 c3         1 WDH       0.237800
      9 C3          23.5190    18.9610    33.6800 c3         1 WDH       0.164800
     10 C2          24.2420    18.7090    32.3240 c          1 WDH       0.591100
     11 O           24.3410    19.5610    31.4490 o          1 WDH      -0.603100
     12 N           24.7810    17.4460    32.1800 ns         1 WDH      -0.501900
     13 C           27.0210    17.4890    31.1030 c3         1 WDH      -0.116100
     14 H1          25.2270    18.1010    37.4660 ha         1 WDH       0.130000
     15 H2          25.0310    15.8250    38.5080 h4         1 WDH       0.017100
     16 H3          25.0970    17.3440    30.1070 h1         1 WDH       0.053700
     17 H4          25.5590    15.8910    31.0200 h1         1 WDH       0.053700
     18 H5          27.4480    20.1450    35.2590 hc         1 WDH       0.049367
     19 H6          27.0490    18.4380    35.5390 hc         1 WDH       0.049367
     20 H7          26.8820    19.1350    33.9120 hc         1 WDH       0.049367
     21 H8          25.0940    20.6690    34.7510 h1         1 WDH       0.048200
     22 H9          25.2220    19.9900    36.3620 h1         1 WDH       0.048200
     23 H10         23.1790    20.0050    33.6740 h1         1 WDH       0.062200
     24 H11         22.6060    18.3520    33.6760 h1         1 WDH       0.062200
     25 H12         24.6690    16.8250    32.9740 hn         1 WDH       0.309500
     26 H13         27.5900    17.1180    30.2430 hc         1 WDH       0.042700
     27 H14         27.0580    18.5840    31.0930 hc         1 WDH       0.042700
     28 H15         27.5080    17.1330    32.0180 hc         1 WDH       0.042700
     29 H16         23.7390    13.3760    34.5300 hc         1 WDH       0.056033
     30 H17         22.2780    13.5420    35.5190 hc         1 WDH       0.056033
     31 H18         22.4180    14.4260    33.9940 hc         1 WDH       0.056033
     32 C10         22.9780    14.0860    34.8730 c3         1 WDH      -0.132400
     33 C1          25.5670    16.9890    31.0350 c3         1 WDH       0.103000
     34 C5          26.7620    19.3370    34.9820 c3         1 WDH      -0.118100
@<TRIPOS>BOND
     1     1     6 1   
     2     1     8 1   
     3     1     9 1   
     4     2     3 ar  
     5     2     6 ar  
     6     2    14 1   
     7     3     4 ar  
     8     3    15 1   
     9     4     5 ar  
    10     5     7 ar  
    11     5    32 1   
    12     6     7 ar  
    13     8    21 1   
    14     8    22 1   
    15     8    34 1   
    16     9    10 1   
    17     9    23 1   
    18     9    24 1   
    19    10    11 2   
    20    10    12 1   
    21    12    25 1   
    22    12    33 1   
    23    13    26 1   
    24    13    27 1   
    25    13    28 1   
    26    13    33 1   
    27    16    33 1   
    28    17    33 1   
    29    18    34 1   
    30    19    34 1   
    31    20    34 1   
    32    29    32 1   
    33    30    32 1   
    34    31    32 1   
@<TRIPOS>SUBSTRUCTURE
     1 WDH         1 TEMP              0 ****  ****    0 ROOT
