@<TRIPOS>MOLECULE
WDH
   34    34     1     0     0
SMALL
abcg2


@<TRIPOS>ATOM
      1 N1          24.4010    18.9010    34.9820 nh         1 WDH      -0.776300
      2 C7          25.1010    17.6270    36.9390 ca         1 WDH      -0.286000
      3 C8          25.2430    16.3610    37.4520 ca         1 WDH       0.135900
      4 N2          24.9420    15.2400    36.7740 nb         1 WDH      -0.221000
      5 C9          24.4810    15.4250    35.5320 ca         1 WDH       0.175300
      6 C6          24.6030    17.7250    35.6210 ca         1 WDH       0.397900
      7 N3          24.3030    16.6020    34.9360 nb         1 WDH      -0.279000
      8 C4          24.6710    20.1870    35.6230 c3         1 WDH       0.237800
      9 C3          23.9890    18.8820    33.5930 c3         1 WDH       0.164800
     10 C2          25.0160    18.2220    32.6670 c          1 WDH       0.591100
     11 O           26.2250    18.3090    32.8730 o          1 WDH      -0.603100
     12 N           24.4870    17.6100    31.5940 ns         1 WDH      -0.501900
     13 C           25.5090    15.4320    30.9880 c3         1 WDH      -0.116100
     14 H1          25.3800    18.4890    37.5240 ha         1 WDH       0.130000
     15 H2          25.6250    16.2270    38.4590 h4         1 WDH       0.017100
     16 H3          26.2390    17.4120    30.5170 h1         1 WDH       0.053700
     17 H4          24.7710    16.9660    29.6500 h1         1 WDH       0.053700
     18 H5          26.2440    21.6150    35.9850 hc         1 WDH       0.049367
     19 H6          26.8050    19.9370    35.9350 hc         1 WDH       0.049367
     20 H7          26.3850    20.7700    34.4340 hc         1 WDH       0.049367
     21 H8          23.9980    20.9160    35.1720 h1         1 WDH       0.048200
     22 H9          24.3910    20.1170    36.6730 h1         1 WDH       0.048200
     23 H10         23.8770    19.9160    33.2660 h1         1 WDH       0.062200
     24 H11         23.0220    18.3900    33.4820 h1         1 WDH       0.062200
     25 H12         23.4860    17.4940    31.5590 hn         1 WDH       0.309500
     26 H13         26.1070    14.9320    30.2230 hc         1 WDH       0.042700
     27 H14         26.0320    15.3560    31.9420 hc         1 WDH       0.042700
     28 H15         24.5560    14.9050    31.0760 hc         1 WDH       0.042700
     29 H16         23.8410    14.4580    33.7280 hc         1 WDH       0.056033
     30 H17         24.9820    13.5140    34.7120 hc         1 WDH       0.056033
     31 H18         23.3060    13.6660    35.2250 hc         1 WDH       0.056033
     32 C10         24.1310    14.1970    34.7430 c3         1 WDH      -0.132400
     33 C1          25.2860    16.8930    30.6100 c3         1 WDH       0.103000
     34 C5          26.1160    20.6530    35.4840 c3         1 WDH      -0.118100
@<TRIPOS>BOND
     1     1     6 1   
     2     1     8 1   
     3     1     9 1   
     4     2     3 ar  
     5     2     6 ar  
     6     2    14 1   
     7     3     4 ar  
     8     3    15 1   
     9     4     5 ar  
    10     5     7 ar  
    11     5    32 1   
    12     6     7 ar  
    13     8    21 1   
    14     8    22 1   
    15     8    34 1   
    16     9    10 1   
    17     9    23 1   
    18     9    24 1   
    19    10    11 2   
    20    10    12 1   
    21    12    25 1   
    22    12    33 1   
    23    13    26 1   
    24    13    27 1   
    25    13    28 1   
    26    13    33 1   
    27    16    33 1   
    28    17    33 1   
    29    18    34 1   
    30    19    34 1   
    31    20    34 1   
    32    29    32 1   
    33    30    32 1   
    34    31    32 1   
@<TRIPOS>SUBSTRUCTURE
     1 WDH         1 TEMP              0 ****  ****    0 ROOT
