@<TRIPOS>MOLECULE
WDI
   29    30     1     0     0
SMALL
abcg2


@<TRIPOS>ATOM
      1 C01          6.8200     7.1700    17.2920 c6         1 WDI      -0.009400
      2 C02          6.4940     7.3550    18.7560 ca         1 WDI      -0.050300
      3 C04          6.2300     8.2870    16.4220 c6         1 WDI      -0.177400
      4 C05          5.1770     7.3300    19.2170 ca         1 WDI      -0.110000
      5 C06          7.5180     7.5640    19.6810 ca         1 WDI      -0.110000
      6 C07          6.5740     5.6820    15.2940 c2         1 WDI       0.166900
      7 C10          7.2400     7.7470    21.0280 ca         1 WDI      -0.056500
      8 C11          6.6670     6.7440    14.4610 ce         1 WDI      -0.441200
      9 O12          6.6490     4.4080    14.8820 oh         1 WDI      -0.528100
     10 C03          6.3650     5.8020    16.7680 c6         1 WDI      -0.045200
     11 C08          6.5170     8.0970    14.9450 c          1 WDI       0.587300
     12 C09          4.8860     7.5100    20.5620 ca         1 WDI      -0.056500
     13 O13          6.5800     9.0700    14.1920 o          1 WDI      -0.538100
     14 C14          5.9200     7.7220    21.4690 ca         1 WDI      -0.188300
     15 F19          4.3300     8.1220    23.1880 f          1 WDI      -0.112333
     16 F20          6.3250     8.9220    23.4750 f          1 WDI      -0.112333
     17 F21          5.9770     6.7910    23.6510 f          1 WDI      -0.112333
     18 H22          7.9070     7.2110    17.1900 hc         1 WDI       0.064700
     19 H25          5.1400     8.3110    16.5340 hc         1 WDI       0.075200
     20 H26          6.6090     9.2630    16.7250 hc         1 WDI       0.075200
     21 H27          4.3620     7.1720    18.5230 ha         1 WDI       0.121500
     22 H28          8.5460     7.5880    19.3410 ha         1 WDI       0.121500
     23 H30          8.0480     7.9110    21.7300 ha         1 WDI       0.133000
     24 H31          6.8250     6.6000    13.3980 ha         1 WDI       0.202000
     25 H1           6.7370     4.3630    13.9170 ho         1 WDI       0.477000
     26 H24          6.9040     4.9970    17.2700 hc         1 WDI       0.075700
     27 H23          5.3000     5.6460    16.9730 hc         1 WDI       0.075700
     28 H29          3.8600     7.4900    20.8990 ha         1 WDI       0.133000
     29 C16          5.6340     7.8920    22.9310 c3         1 WDI       0.343300
@<TRIPOS>BOND
     1     1     2 1   
     2     1     3 1   
     3     1    10 1   
     4     1    18 1   
     5     2     4 ar  
     6     2     5 ar  
     7     3    11 1   
     8     3    19 1   
     9     3    20 1   
    10     4    12 ar  
    11     4    21 1   
    12     5     7 ar  
    13     5    22 1   
    14     6     8 2   
    15     6     9 1   
    16     6    10 1   
    17     7    14 ar  
    18     7    23 1   
    19     8    11 1   
    20     8    24 1   
    21     9    25 1   
    22    10    26 1   
    23    10    27 1   
    24    11    13 2   
    25    12    14 ar  
    26    12    28 1   
    27    14    29 1   
    28    15    29 1   
    29    16    29 1   
    30    17    29 1   
@<TRIPOS>SUBSTRUCTURE
     1 WDI         1 TEMP              0 ****  ****    0 ROOT
