@<TRIPOS>MOLECULE
WDI
   29    30     1     0     0
SMALL
No Charge or Current Charge


@<TRIPOS>ATOM
      1 C01          6.8150     7.1980    17.2700 c6         1 WDI      -0.009400
      2 C02          6.4960     7.3840    18.7610 ca         1 WDI      -0.050300
      3 C04          6.1430     8.2780    16.3830 c6         1 WDI      -0.177400
      4 C05          5.1660     7.3620    19.2280 ca         1 WDI      -0.110000
      5 C06          7.5390     7.5710    19.6880 ca         1 WDI      -0.110000
      6 C07          6.5930     5.6510    15.2540 c2         1 WDI       0.166900
      7 C10          7.2610     7.7410    21.0550 ca         1 WDI      -0.056500
      8 C11          6.6070     6.7040    14.4190 ce         1 WDI      -0.441200
      9 O12          6.7140     4.3900    14.8260 oh         1 WDI      -0.528100
     10 C03          6.4290     5.7810    16.7620 c6         1 WDI      -0.045200
     11 C08          6.5050     8.1020    14.9040 c          1 WDI       0.587300
     12 C09          4.8850     7.5320    20.5940 ca         1 WDI      -0.056500
     13 O13          6.7010     9.0560    14.1660 o          1 WDI      -0.538100
     14 C14          5.9290     7.7310    21.5220 ca         1 WDI      -0.188300
     15 F19          4.4230     8.4880    23.2300 f          1 WDI      -0.112333
     16 F20          6.5440     8.6740    23.6410 f          1 WDI      -0.112333
     17 F21          5.6050     6.7130    23.6530 f          1 WDI      -0.112333
     18 H22          7.9010     7.3040    17.1350 hc         1 WDI       0.064700
     19 H25          5.0580     8.1230    16.4450 hc         1 WDI       0.075200
     20 H26          6.3610     9.3040    16.7070 hc         1 WDI       0.075200
     21 H27          4.3420     7.2110    18.5340 ha         1 WDI       0.121500
     22 H28          8.5740     7.5850    19.3520 ha         1 WDI       0.121500
     23 H30          8.0880     7.8780    21.7490 ha         1 WDI       0.133000
     24 H31          6.7510     6.5900    13.3470 ha         1 WDI       0.202000
     25 H1           6.8080     4.4220    13.8510 ho         1 WDI       0.477000
     26 H24          7.0430     5.0280    17.2760 hc         1 WDI       0.075700
     27 H23          5.3860     5.5560    17.0200 hc         1 WDI       0.075700
     28 H29          3.8490     7.5040    20.9280 ha         1 WDI       0.133000
     29 C16          5.6250     7.9050    23.0140 c3         1 WDI       0.343300
@<TRIPOS>BOND
     1     1     2 1   
     2     1     3 1   
     3     1    10 1   
     4     1    18 1   
     5     2     4 ar  
     6     2     5 ar  
     7     3    11 1   
     8     3    19 1   
     9     3    20 1   
    10     4    12 ar  
    11     4    21 1   
    12     5     7 ar  
    13     5    22 1   
    14     6     8 2   
    15     6     9 1   
    16     6    10 1   
    17     7    14 ar  
    18     7    23 1   
    19     8    11 1   
    20     8    24 1   
    21     9    25 1   
    22    10    26 1   
    23    10    27 1   
    24    11    13 2   
    25    12    14 ar  
    26    12    28 1   
    27    14    29 1   
    28    15    29 1   
    29    16    29 1   
    30    17    29 1   
@<TRIPOS>SUBSTRUCTURE
     1 WDI         1 TEMP              0 ****  ****    0 ROOT
