@<TRIPOS>MOLECULE
WDL
   12    12     1     0     0
SMALL
abcg2


@<TRIPOS>ATOM
      1 NAE        -59.8950    -9.7250    -8.2950 nb         1 WDL      -0.329000
      2 CAH        -59.0440   -10.2520    -9.1740 ca         1 WDL       0.429300
      3 OAB        -58.6390   -11.5020    -8.9810 oh         1 WDL      -0.601633
      4 N6         -58.5440    -9.6490   -10.2480 nb         1 WDL      -0.329000
      5 CAI        -58.9730    -8.4010   -10.4060 ca         1 WDL       0.429300
      6 NAF        -59.8210    -7.7540    -9.6070 nb         1 WDL      -0.329000
      7 OAC        -58.4980    -7.7610   -11.4670 oh         1 WDL      -0.601633
      8 CAG        -60.2430    -8.4730    -8.5690 ca         1 WDL       0.429300
      9 OAA        -61.0900    -7.9110    -7.7160 oh         1 WDL      -0.601633
     10 HAB        -59.0610   -11.8480    -8.1770 ho         1 WDL       0.500667
     11 HAC        -58.8670    -6.8630   -11.4860 ho         1 WDL       0.500667
     12 HAA        -61.2760    -7.0030    -8.0070 ho         1 WDL       0.500667
@<TRIPOS>BOND
     1     1     2 ar  
     2     1     8 ar  
     3     2     3 1   
     4     2     4 ar  
     5     3    10 1   
     6     4     5 ar  
     7     5     6 ar  
     8     5     7 1   
     9     6     8 ar  
    10     7    11 1   
    11     8     9 1   
    12     9    12 1   
@<TRIPOS>SUBSTRUCTURE
     1 WDL         1 TEMP              0 ****  ****    0 ROOT
