@<TRIPOS>MOLECULE
WDL
   12    12     1     0     0
SMALL
No Charge or Current Charge


@<TRIPOS>ATOM
      1 NAE        -59.8830    -9.7510    -8.2970 nb         1 WDL      -0.329000
      2 CAH        -59.0260   -10.2830    -9.1810 ca         1 WDL       0.429300
      3 OAB        -58.6310   -11.5570    -8.9600 oh         1 WDL      -0.601633
      4 N6         -58.5310    -9.6590   -10.2610 nb         1 WDL      -0.329000
      5 CAI        -58.9630    -8.3990   -10.4200 ca         1 WDL       0.429300
      6 NAF        -59.8160    -7.7580    -9.6070 nb         1 WDL      -0.329000
      7 OAC        -58.5020    -7.7110   -11.4890 oh         1 WDL      -0.601633
      8 CAG        -60.2410    -8.4850    -8.5640 ca         1 WDL       0.429300
      9 OAA        -61.1030    -7.8890    -7.7110 oh         1 WDL      -0.601633
     10 HAB        -59.0890   -11.8410    -8.1410 ho         1 WDL       0.500667
     11 HAC        -58.9200    -6.8260   -11.4400 ho         1 WDL       0.500667
     12 HAA        -61.2460    -6.9850    -8.0620 ho         1 WDL       0.500667
@<TRIPOS>BOND
     1     1     2 ar  
     2     1     8 ar  
     3     2     3 1   
     4     2     4 ar  
     5     3    10 1   
     6     4     5 ar  
     7     5     6 ar  
     8     5     7 1   
     9     6     8 ar  
    10     7    11 1   
    11     8     9 1   
    12     9    12 1   
@<TRIPOS>SUBSTRUCTURE
     1 WDL         1 TEMP              0 ****  ****    0 ROOT
