@<TRIPOS>MOLECULE
WDM
   40    42     1     0     0
SMALL
No Charge or Current Charge


@<TRIPOS>ATOM
      1 C11         29.1010    -0.3560    -0.9930 c          1 WDM       0.604100
      2 C01         24.7620     6.2930    -0.4430 c3         1 WDM       0.074300
      3 C03         23.7690     4.2030     0.4980 c          1 WDM       0.613000
      4 C05         22.6890     2.1790     1.4610 c3         1 WDM       0.095300
      5 C06         25.1190     2.2630     0.8950 cc         1 WDM       0.443900
      6 C08         26.6570     0.8280     1.0270 cd         1 WDM       0.561800
      7 C10         29.2130    -0.4310     0.5440 c3         1 WDM      -0.098400
      8 C13         31.6330    -0.3210    -1.1570 c6         1 WDM       0.063000
      9 C14         32.8110     0.2700    -1.9750 c6         1 WDM       0.142600
     10 C16         31.4590     0.5930    -3.9160 c6         1 WDM       0.142600
     11 C17         30.1980     0.0140    -3.2260 c6         1 WDM       0.063000
     12 C20         26.2150     2.9090     0.4180 cd         1 WDM      -0.299600
     13 C21         26.1520     4.2630    -0.0440 cs         1 WDM       0.442000
     14 N02         24.9180     4.8880     0.0200 n          1 WDM      -0.289400
     15 N04         23.8970     2.8800     0.9520 n          1 WDM      -0.347300
     16 N07         25.3760     0.9840     1.2880 nc         1 WDM      -0.680000
     17 N12         30.2700    -0.0560    -1.7300 n          1 WDM      -0.405800
     18 N19         27.2380     1.9670     0.5210 na         1 WDM      -0.246500
     19 O15         32.6490    -0.0100    -3.3770 os         1 WDM      -0.444000
     20 O18         28.0230    -0.4860    -1.5590 o          1 WDM      -0.570100
     21 S09         27.5780    -0.6340     1.4180 ss         1 WDM      -0.202300
     22 S22         27.5520     4.9770    -0.6310 s          1 WDM      -0.565400
     23 H013        23.8840     6.7720     0.0070 h1         1 WDM       0.070367
     24 H011        25.6390     6.8890    -0.1590 h1         1 WDM       0.070367
     25 H012        24.6570     6.3110    -1.5350 h1         1 WDM       0.070367
     26 H051        22.1510     2.8230     2.1680 h1         1 WDM       0.063700
     27 H052        22.0250     1.9360     0.6220 h1         1 WDM       0.063700
     28 H053        22.9540     1.2510     1.9820 h1         1 WDM       0.063700
     29 H101        29.8470    -1.2920     0.7870 h1         1 WDM       0.095200
     30 H102        29.7130     0.4750     0.9040 h1         1 WDM       0.095200
     31 H132        31.7730    -1.4090    -1.0820 h1         1 WDM       0.060200
     32 H131        31.7010     0.0840    -0.1390 h1         1 WDM       0.060200
     33 H142        33.7610    -0.1600    -1.6270 h1         1 WDM       0.056700
     34 H141        32.8590     1.3590    -1.8280 h1         1 WDM       0.056700
     35 H161        31.4140     0.4030    -4.9980 h1         1 WDM       0.056700
     36 H162        31.5040     1.6810    -3.7630 h1         1 WDM       0.056700
     37 H171        29.3320     0.6240    -3.5220 h1         1 WDM       0.060200
     38 H172        30.0230    -1.0000    -3.6130 h1         1 WDM       0.060200
     39 H191        28.2130     2.0880     0.2800 hn         1 WDM       0.383000
     40 O23         22.6740     4.7520     0.5140 o          1 WDM      -0.540000
@<TRIPOS>BOND
     1     1     7 1   
     2     1    17 1   
     3     1    20 2   
     4     2    14 1   
     5     2    23 1   
     6     2    24 1   
     7     2    25 1   
     8     3    14 1   
     9     3    15 1   
    10     3    40 2   
    11     4    15 1   
    12     4    26 1   
    13     4    27 1   
    14     4    28 1   
    15     5    12 2   
    16     5    15 1   
    17     5    16 1   
    18     6    16 2   
    19     6    18 1   
    20     6    21 1   
    21     7    21 1   
    22     7    29 1   
    23     7    30 1   
    24     8     9 1   
    25     8    17 1   
    26     8    31 1   
    27     8    32 1   
    28     9    19 1   
    29     9    33 1   
    30     9    34 1   
    31    10    11 1   
    32    10    19 1   
    33    10    35 1   
    34    10    36 1   
    35    11    17 1   
    36    11    37 1   
    37    11    38 1   
    38    12    13 1   
    39    12    18 1   
    40    13    14 1   
    41    13    22 2   
    42    18    39 1   
@<TRIPOS>SUBSTRUCTURE
     1 WDM         1 TEMP              0 ****  ****    0 ROOT
