@<TRIPOS>MOLECULE
WDM
   40    42     1     0     0
SMALL
abcg2


@<TRIPOS>ATOM
      1 C11         29.1020    -0.0860    -1.1570 c          1 WDM       0.604100
      2 C01         24.7620     6.2670     0.0560 c3         1 WDM       0.074300
      3 C03         23.7560     4.0980     0.5360 c          1 WDM       0.613000
      4 C05         22.7490     1.9020     1.0160 c3         1 WDM       0.095300
      5 C06         25.1460     2.2010     0.7850 cc         1 WDM       0.443900
      6 C08         26.7750     0.8740     0.8880 cd         1 WDM       0.561800
      7 C10         29.2180    -0.2830     0.3520 c3         1 WDM      -0.098400
      8 C13         31.5450     0.2970    -1.1000 c6         1 WDM       0.063000
      9 C14         32.6620     0.3650    -2.1310 c6         1 WDM       0.142600
     10 C16         31.3340    -0.5320    -3.8610 c6         1 WDM       0.142600
     11 C17         30.3010     0.3890    -3.2220 c6         1 WDM       0.063000
     12 C20         26.2630     2.9660     0.5660 cd         1 WDM      -0.299600
     13 C21         26.2130     4.3400     0.3120 cs         1 WDM       0.442000
     14 N02         24.9260     4.8400     0.3140 n          1 WDM      -0.289400
     15 N04         23.9050     2.7510     0.7760 n          1 WDM      -0.347300
     16 N07         25.4520     0.9100     0.9800 nc         1 WDM      -0.680000
     17 N12         30.2620     0.1710    -1.7880 n          1 WDM      -0.405800
     18 N19         27.3100     2.0810     0.6470 na         1 WDM      -0.246500
     19 O15         32.5140    -0.6550    -3.0860 os         1 WDM      -0.444000
     20 O18         28.0230    -0.1540    -1.7210 o          1 WDM      -0.570100
     21 S09         27.6350    -0.6080     1.1430 ss         1 WDM      -0.202300
     22 S22         27.5690     5.2640     0.0390 s          1 WDM      -0.565400
     23 H013        23.7110     6.5230     0.0810 h1         1 WDM       0.070367
     24 H011        25.2930     6.8440     0.8110 h1         1 WDM       0.070367
     25 H012        25.1720     6.5150    -0.9210 h1         1 WDM       0.070367
     26 H051        21.8500     2.5050     0.9990 h1         1 WDM       0.063700
     27 H052        22.6790     1.1370     0.2440 h1         1 WDM       0.063700
     28 H053        22.8380     1.4200     1.9870 h1         1 WDM       0.063700
     29 H101        29.8140    -1.1720     0.5770 h1         1 WDM       0.095200
     30 H102        29.7360     0.5460     0.8400 h1         1 WDM       0.095200
     31 H132        31.7110    -0.5650    -0.4520 h1         1 WDM       0.060200
     32 H131        31.5780     1.1960    -0.4750 h1         1 WDM       0.060200
     33 H142        33.6160     0.2100    -1.6260 h1         1 WDM       0.056700
     34 H141        32.7040     1.3570    -2.5960 h1         1 WDM       0.056700
     35 H161        30.9150    -1.5340    -3.9760 h1         1 WDM       0.056700
     36 H162        31.5670    -0.1530    -4.8630 h1         1 WDM       0.056700
     37 H171        30.5280     1.4380    -3.4260 h1         1 WDM       0.060200
     38 H172        29.3230     0.1850    -3.6500 h1         1 WDM       0.060200
     39 H191        28.2850     2.3330     0.5740 hn         1 WDM       0.383000
     40 O23         22.6620     4.6220     0.5160 o          1 WDM      -0.540000
@<TRIPOS>BOND
     1     1     7 1   
     2     1    17 1   
     3     1    20 2   
     4     2    14 1   
     5     2    23 1   
     6     2    24 1   
     7     2    25 1   
     8     3    14 1   
     9     3    15 1   
    10     3    40 2   
    11     4    15 1   
    12     4    26 1   
    13     4    27 1   
    14     4    28 1   
    15     5    12 2   
    16     5    15 1   
    17     5    16 1   
    18     6    16 2   
    19     6    18 1   
    20     6    21 1   
    21     7    21 1   
    22     7    29 1   
    23     7    30 1   
    24     8     9 1   
    25     8    17 1   
    26     8    31 1   
    27     8    32 1   
    28     9    19 1   
    29     9    33 1   
    30     9    34 1   
    31    10    11 1   
    32    10    19 1   
    33    10    35 1   
    34    10    36 1   
    35    11    17 1   
    36    11    37 1   
    37    11    38 1   
    38    12    13 1   
    39    12    18 1   
    40    13    14 1   
    41    13    22 2   
    42    18    39 1   
@<TRIPOS>SUBSTRUCTURE
     1 WDM         1 TEMP              0 ****  ****    0 ROOT
