@<TRIPOS>MOLECULE
WDN
   25    25     1     0     0
SMALL
abcg2


@<TRIPOS>ATOM
      1 C7          -4.3810    16.5200   -38.5140 cc         1 WDN      -0.247000
      2 C8          -2.1110    17.0080   -39.3600 cc         1 WDN      -0.194000
      3 O1           0.9420    11.8360   -35.8650 os         1 WDN      -0.449100
      4 C1           0.5040    14.1750   -36.4420 c3         1 WDN      -0.009000
      5 C5          -2.1190    15.9950   -38.4380 cd         1 WDN      -0.168600
      6 C6          -3.4340    15.7160   -37.9530 cd         1 WDN      -0.105000
      7 C4          -0.8860    15.2300   -38.0920 c          1 WDN       0.642700
      8 C3           2.3220    12.2010   -35.6420 c3         1 WDN       0.161900
      9 C2           0.0330    12.7390   -36.2510 c          1 WDN       0.579100
     10 O2          -0.1730    14.7680   -38.9880 o          1 WDN      -0.597100
     11 S           -3.6840    17.6340   -39.6260 ss         1 WDN       0.213000
     12 N           -0.5850    15.0600   -36.7800 n          1 WDN      -0.396800
     13 C           -1.3300    15.6340   -35.6660 c3         1 WDN       0.096300
     14 O           -1.1070    12.3820   -36.4350 o          1 WDN      -0.428000
     15 H1          -5.4450    16.5190   -38.3410 h4         1 WDN       0.154000
     16 H2          -1.2610    17.4140   -39.8840 h4         1 WDN       0.161000
     17 H3           1.2510    14.1930   -37.2340 h1         1 WDN       0.080200
     18 H4           0.9810    14.5250   -35.5260 h1         1 WDN       0.080200
     19 H5          -3.6590    14.9430   -37.2330 ha         1 WDN       0.146000
     20 H6           2.8240    11.2740   -35.3830 h1         1 WDN       0.047033
     21 H7           2.7630    12.6170   -36.5470 h1         1 WDN       0.047033
     22 H8           2.4040    12.9080   -34.8170 h1         1 WDN       0.047033
     23 H9          -0.6210    15.9640   -34.9060 h1         1 WDN       0.045700
     24 H10         -1.9030    16.4920   -35.9990 h1         1 WDN       0.045700
     25 H11         -2.0060    14.9010   -35.2190 h1         1 WDN       0.045700
@<TRIPOS>BOND
     1     1     6 2   
     2     1    11 1   
     3     1    15 1   
     4     2     5 2   
     5     2    11 1   
     6     2    16 1   
     7     3     8 1   
     8     3     9 1   
     9     4     9 1   
    10     4    12 1   
    11     4    17 1   
    12     4    18 1   
    13     5     6 1   
    14     5     7 1   
    15     6    19 1   
    16     7    10 2   
    17     7    12 1   
    18     8    20 1   
    19     8    21 1   
    20     8    22 1   
    21     9    14 2   
    22    12    13 1   
    23    13    23 1   
    24    13    24 1   
    25    13    25 1   
@<TRIPOS>SUBSTRUCTURE
     1 WDN         1 TEMP              0 ****  ****    0 ROOT
