@<TRIPOS>MOLECULE
WDN
   25    25     1     0     0
SMALL
No Charge or Current Charge


@<TRIPOS>ATOM
      1 C7          -4.3890    16.7870   -38.4860 cc         1 WDN      -0.247000
      2 C8          -2.2380    16.4970   -39.7190 cc         1 WDN      -0.194000
      3 O1           1.2700    11.7250   -36.3970 os         1 WDN      -0.449100
      4 C1           0.3760    14.0490   -36.2090 c3         1 WDN      -0.009000
      5 C5          -2.1750    15.9730   -38.4420 cd         1 WDN      -0.168600
      6 C6          -3.4290    16.1300   -37.7610 cd         1 WDN      -0.105000
      7 C4          -0.9080    15.2910   -37.9860 c          1 WDN       0.642700
      8 C3           2.4590    12.1960   -35.7280 c3         1 WDN       0.161900
      9 C2           0.2110    12.5710   -36.6630 c          1 WDN       0.579100
     10 O2          -0.0230    15.0120   -38.7880 o          1 WDN      -0.597100
     11 S           -3.7890    17.2450   -40.0680 ss         1 WDN       0.213000
     12 N           -0.7380    14.9640   -36.6120 n          1 WDN      -0.396800
     13 C           -1.4100    15.6980   -35.5160 c3         1 WDN       0.096300
     14 O           -0.7990    12.1570   -37.2150 o          1 WDN      -0.428000
     15 H1          -5.4100    17.0240   -38.2140 h4         1 WDN       0.154000
     16 H2          -1.4710    16.5130   -40.4840 h4         1 WDN       0.161000
     17 H3           1.3120    14.4360   -36.6300 h1         1 WDN       0.080200
     18 H4           0.4780    14.0430   -35.1170 h1         1 WDN       0.080200
     19 H5          -3.6480    15.7390   -36.7750 ha         1 WDN       0.146000
     20 H6           3.1690    11.3700   -35.5950 h1         1 WDN       0.047033
     21 H7           2.9640    12.9740   -36.3140 h1         1 WDN       0.047033
     22 H8           2.2250    12.5940   -34.7320 h1         1 WDN       0.047033
     23 H9          -0.7200    15.8330   -34.6740 h1         1 WDN       0.045700
     24 H10         -1.7190    16.6960   -35.8510 h1         1 WDN       0.045700
     25 H11         -2.2790    15.1300   -35.1640 h1         1 WDN       0.045700
@<TRIPOS>BOND
     1     1     6 2   
     2     1    11 1   
     3     1    15 1   
     4     2     5 2   
     5     2    11 1   
     6     2    16 1   
     7     3     8 1   
     8     3     9 1   
     9     4     9 1   
    10     4    12 1   
    11     4    17 1   
    12     4    18 1   
    13     5     6 1   
    14     5     7 1   
    15     6    19 1   
    16     7    10 2   
    17     7    12 1   
    18     8    20 1   
    19     8    21 1   
    20     8    22 1   
    21     9    14 2   
    22    12    13 1   
    23    13    23 1   
    24    13    24 1   
    25    13    25 1   
@<TRIPOS>SUBSTRUCTURE
     1 WDN         1 TEMP              0 ****  ****    0 ROOT
