@<TRIPOS>MOLECULE
WDO
   27    28     1     0     0
SMALL
abcg2


@<TRIPOS>ATOM
      1 C01          7.2560     6.7200    19.1380 ca         1 WDO       0.246100
      2 C04          8.3790     6.3280    18.4060 ca         1 WDO      -0.170500
      3 C05          6.2840     6.9720    21.2930 ca         1 WDO       0.049100
      4 C06          6.0550     7.2090    17.1150 ca         1 WDO       0.031500
      5 C07          8.3460     6.3730    17.0270 ca         1 WDO       0.031500
      6 C10          7.1820     6.8130    16.3910 ca         1 WDO      -0.160500
      7 C11          5.1540     8.5530    22.6920 ca         1 WDO      -0.087000
      8 O02          7.3750     6.6520    20.4860 os         1 WDO      -0.222200
      9 C03          6.0930     7.1630    18.4930 ca         1 WDO      -0.170500
     10 C08          6.2100     8.2410    21.8440 ca         1 WDO      -0.097000
     11 C09          5.3340     6.0020    21.5710 ca         1 WDO      -0.097000
     12 C12          4.2750     6.3110    22.4160 ca         1 WDO      -0.087000
     13 S13          7.2130     6.8360    14.6600 s4         1 WDO       0.617100
     14 C14          4.1970     7.5850    22.9650 ca         1 WDO       0.134000
     15 O15          6.7210     8.3330    14.3980 oh         1 WDO      -0.543300
     16 O16          5.9060     5.9680    14.3510 oh         1 WDO      -0.543300
     17 CL17         2.8630     7.9760    24.0280 cl         1 WDO      -0.168000
     18 H19          9.2630     5.9910    18.9300 ha         1 WDO       0.160500
     19 H20          5.1630     7.5500    16.6090 ha         1 WDO       0.138000
     20 H21          9.2100     6.0690    16.4500 ha         1 WDO       0.138000
     21 H24          5.0780     9.5370    23.1330 ha         1 WDO       0.148000
     22 H18          5.2300     7.4670    19.0650 ha         1 WDO       0.160500
     23 H22          6.9680     8.9770    21.6100 ha         1 WDO       0.137500
     24 H23          5.4190     5.0190    21.1280 ha         1 WDO       0.137500
     25 H25          3.5230     5.5690    22.6450 ha         1 WDO       0.148000
     26 H1           6.9520     8.6070    13.4890 ho         1 WDO       0.534000
     27 H26          5.9390     5.6270    13.4360 ho         1 WDO       0.534000
@<TRIPOS>BOND
     1     1     2 ar  
     2     1     8 1   
     3     1     9 ar  
     4     2     5 ar  
     5     2    18 1   
     6     3     8 1   
     7     3    10 ar  
     8     3    11 ar  
     9     4     6 ar  
    10     4     9 ar  
    11     4    19 1   
    12     5     6 ar  
    13     5    20 1   
    14     6    13 1   
    15     7    10 ar  
    16     7    14 ar  
    17     7    21 1   
    18     9    22 1   
    19    10    23 1   
    20    11    12 ar  
    21    11    24 1   
    22    12    14 ar  
    23    12    25 1   
    24    13    15 1   
    25    13    16 1   
    26    14    17 1   
    27    15    26 1   
    28    16    27 1   
@<TRIPOS>SUBSTRUCTURE
     1 WDO         1 TEMP              0 ****  ****    0 ROOT
