@<TRIPOS>MOLECULE
WDO
   27    28     1     0     0
SMALL
No Charge or Current Charge


@<TRIPOS>ATOM
      1 C01          7.3090     7.1610    19.0330 ca         1 WDO       0.246100
      2 C04          8.3390     6.4730    18.3770 ca         1 WDO      -0.170500
      3 C05          6.3390     7.3500    21.2410 ca         1 WDO       0.049100
      4 C06          6.1230     7.3990    16.9170 ca         1 WDO       0.031500
      5 C07          8.2650     6.2340    16.9940 ca         1 WDO       0.031500
      6 C10          7.1570     6.6910    16.2520 ca         1 WDO      -0.160500
      7 C11          5.1860     8.2530    23.1880 ca         1 WDO      -0.087000
      8 O02          7.4170     7.3900    20.3860 os         1 WDO      -0.222200
      9 C03          6.2050     7.6340    18.3010 ca         1 WDO      -0.170500
     10 C08          6.2710     8.2810    22.2920 ca         1 WDO      -0.097000
     11 C09          5.3310     6.3750    21.0960 ca         1 WDO      -0.097000
     12 C12          4.2460     6.3500    21.9930 ca         1 WDO      -0.087000
     13 S13          7.1390     6.3410    14.4750 s4         1 WDO       0.617100
     14 C14          4.1750     7.2900    23.0350 ca         1 WDO       0.134000
     15 O15          6.8080     7.9870    14.3000 oh         1 WDO      -0.543300
     16 O16          5.5760     5.7670    14.7490 oh         1 WDO      -0.543300
     17 Cl17         2.8190     7.2560    24.1560 cl         1 WDO      -0.168000
     18 H19          9.1960     6.1200    18.9450 ha         1 WDO       0.160500
     19 H20          5.2580     7.7710    16.3700 ha         1 WDO       0.138000
     20 H21          9.0710     5.6930    16.5000 ha         1 WDO       0.138000
     21 H24          5.1290     8.9750    23.9990 ha         1 WDO       0.148000
     22 H18          5.4150     8.1870    18.7990 ha         1 WDO       0.160500
     23 H22          7.0560     9.0240    22.4100 ha         1 WDO       0.137500
     24 H23          5.3860     5.6370    20.2990 ha         1 WDO       0.137500
     25 H25          3.4650     5.6020    21.8840 ha         1 WDO       0.148000
     26 H1           7.3770     8.2660    13.5530 ho         1 WDO       0.534000
     27 H26          5.5310     4.9410    14.2260 ho         1 WDO       0.534000
@<TRIPOS>BOND
     1     1     2 ar  
     2     1     8 1   
     3     1     9 ar  
     4     2     5 ar  
     5     2    18 1   
     6     3     8 1   
     7     3    10 ar  
     8     3    11 ar  
     9     4     6 ar  
    10     4     9 ar  
    11     4    19 1   
    12     5     6 ar  
    13     5    20 1   
    14     6    13 1   
    15     7    10 ar  
    16     7    14 ar  
    17     7    21 1   
    18     9    22 1   
    19    10    23 1   
    20    11    12 ar  
    21    11    24 1   
    22    12    14 ar  
    23    12    25 1   
    24    13    15 1   
    25    13    16 1   
    26    14    17 1   
    27    15    26 1   
    28    16    27 1   
@<TRIPOS>SUBSTRUCTURE
     1 WDO         1 TEMP              0 ****  ****    0 ROOT
