@<TRIPOS>MOLECULE
WDR
   42    44     1     0     0
SMALL
No Charge or Current Charge


@<TRIPOS>ATOM
      1 CAA         -3.3010     1.6510    -0.4960 c          1 WDR       0.613000
      2 NAB         -2.1610     1.9590    -1.2030 ns         1 WDR      -0.151000
      3 CAC         -0.8530     1.5390    -0.9270 ca         1 WDR       0.016000
      4 CAD         -0.6410     0.6990     0.1690 ca         1 WDR      -0.194300
      5 CAE         -1.8320     0.2370     1.0160 c6         1 WDR       0.397000
      6 CAF          0.6650     0.2680     0.4750 ca         1 WDR      -0.034000
      7 CAG          1.7670     0.6650    -0.3150 ca         1 WDR      -0.040000
      8 CAH          3.1340     0.2130     0.0120 cc         1 WDR      -0.175000
      9 CAI          4.0570    -0.1330    -0.9360 cd         1 WDR       0.199300
     10 OAJ          5.1720    -0.6500    -0.3290 os         1 WDR      -0.071700
     11 CAK          4.0140    -0.1530    -2.4430 c3         1 WDR      -0.138400
     12 CAL          3.7300    -0.2000     1.2310 cc         1 WDR       0.291300
     13 NAM          4.9480    -0.6950     1.0870 nd         1 WDR      -0.364300
     14 CAN          3.0980    -0.0440     2.5860 c3         1 WDR      -0.134400
     15 CAO          0.2250     1.9530    -1.7200 ca         1 WDR      -0.170000
     16 CAP          1.5270     1.5190    -1.4150 ca         1 WDR      -0.054000
     17 NAQ         -3.1420     0.8060     0.6210 n          1 WDR      -0.429800
     18 CAR         -4.3180     0.4630     1.4500 c3         1 WDR       0.094300
     19 OAS         -4.3940     2.0940    -0.8240 o          1 WDR      -0.575000
     20 OAT         -1.9340    -1.2010     0.9470 os         1 WDR      -0.458000
     21 CAU         -2.1490    -1.8010    -0.3530 c3         1 WDR       0.152600
     22 CAV         -2.2440    -3.3410    -0.1910 c3         1 WDR       0.163600
     23 OAW         -3.4390    -3.7290     0.5140 oh         1 WDR      -0.710000
     24 HNAB        -2.2810     2.5650    -2.0040 hn         1 WDR       0.174000
     25 HAE         -1.6360     0.5370     2.0570 h2         1 WDR       0.094700
     26 HAF          0.8040    -0.4130     1.3080 ha         1 WDR       0.125000
     27 HAK          4.2840     0.8250    -2.8570 hc         1 WDR       0.063700
     28 HAKA         4.7200    -0.8880    -2.8440 hc         1 WDR       0.063700
     29 HAKB         3.0170    -0.4240    -2.8100 hc         1 WDR       0.063700
     30 HAN          2.5010    -0.9260     2.8420 hc         1 WDR       0.057700
     31 HANA         3.8630     0.0760     3.3620 hc         1 WDR       0.057700
     32 HANB         2.4530     0.8410     2.6240 hc         1 WDR       0.057700
     33 HAO          0.0610     2.6170    -2.5660 ha         1 WDR       0.122000
     34 HAP          2.3490     1.8850    -2.0220 ha         1 WDR       0.118000
     35 HAR         -4.8240     1.3800     1.7780 h1         1 WDR       0.049367
     36 HARA        -5.0180    -0.1450     0.8630 h1         1 WDR       0.049367
     37 HARB        -4.0120    -0.1070     2.3370 h1         1 WDR       0.049367
     38 HAU         -3.0720    -1.4290    -0.8160 h1         1 WDR       0.039200
     39 HAUA        -1.3150    -1.5720    -1.0280 h1         1 WDR       0.039200
     40 HAV         -2.2360    -3.7950    -1.1910 h1         1 WDR       0.025700
     41 HAVA        -1.3510    -3.6980     0.3390 h1         1 WDR       0.025700
     42 HOAW        -3.3930    -4.7050     0.6390 ho         1 WDR       0.502000
@<TRIPOS>BOND
     1     1     2 1   
     2     1    17 1   
     3     1    19 2   
     4     2     3 1   
     5     2    24 1   
     6     3     4 ar  
     7     3    15 ar  
     8     4     5 1   
     9     4     6 ar  
    10     5    17 1   
    11     5    20 1   
    12     5    25 1   
    13     6     7 ar  
    14     6    26 1   
    15     7     8 1   
    16     7    16 ar  
    17     8     9 2   
    18     8    12 1   
    19     9    10 1   
    20     9    11 1   
    21    10    13 1   
    22    11    27 1   
    23    11    28 1   
    24    11    29 1   
    25    12    13 2   
    26    12    14 1   
    27    14    30 1   
    28    14    31 1   
    29    14    32 1   
    30    15    16 ar  
    31    15    33 1   
    32    16    34 1   
    33    17    18 1   
    34    18    35 1   
    35    18    36 1   
    36    18    37 1   
    37    20    21 1   
    38    21    22 1   
    39    21    38 1   
    40    21    39 1   
    41    22    23 1   
    42    22    40 1   
    43    22    41 1   
    44    23    42 1   
@<TRIPOS>SUBSTRUCTURE
     1 WDR         1 TEMP              0 ****  ****    0 ROOT
