@<TRIPOS>MOLECULE
WDR
   42    44     1     0     0
SMALL
abcg2


@<TRIPOS>ATOM
      1 CAA         -3.2330     1.4710    -0.2880 c          1 WDR       0.613000
      2 NAB         -2.1770     1.7210    -1.1220 ns         1 WDR      -0.151000
      3 CAC         -0.8730     1.3620    -0.8580 ca         1 WDR       0.016000
      4 CAD         -0.6180     0.5100     0.2090 ca         1 WDR      -0.194300
      5 CAE         -1.7610    -0.0540     1.0010 c6         1 WDR       0.397000
      6 CAF          0.6870     0.1340     0.4890 ca         1 WDR      -0.034000
      7 CAG          1.7540     0.5940    -0.2760 ca         1 WDR      -0.040000
      8 CAH          3.1300     0.1940     0.0230 cc         1 WDR      -0.175000
      9 CAI          4.0860    -0.2460    -0.8390 cd         1 WDR       0.199300
     10 OAJ          5.2150    -0.4740    -0.1640 os         1 WDR      -0.071700
     11 CAK          4.0870    -0.5040    -2.2970 c3         1 WDR      -0.138400
     12 CAL          3.7990     0.2040     1.2840 cc         1 WDR       0.291300
     13 NAM          5.0320    -0.1900     1.1590 nd         1 WDR      -0.364300
     14 CAN          3.2570     0.6140     2.6060 c3         1 WDR      -0.134400
     15 CAO          0.1800     1.8300    -1.6410 ca         1 WDR      -0.170000
     16 CAP          1.4740     1.4500    -1.3450 ca         1 WDR      -0.054000
     17 NAQ         -2.9580     0.7350     0.8260 n          1 WDR      -0.429800
     18 CAR         -4.0670     0.4090     1.7040 c3         1 WDR       0.094300
     19 OAS         -4.3450     1.9140    -0.5330 o          1 WDR      -0.575000
     20 OAT         -1.9790    -1.4180     0.7410 os         1 WDR      -0.458000
     21 CAU         -2.3010    -1.7580    -0.5920 c3         1 WDR       0.152600
     22 CAV         -2.5890    -3.2360    -0.6630 c3         1 WDR       0.163600
     23 OAW         -3.7490    -3.5220     0.0820 oh         1 WDR      -0.710000
     24 HNAB        -2.3710     2.3140    -1.9150 hn         1 WDR       0.174000
     25 HAE         -1.5080    -0.0320     2.0650 h2         1 WDR       0.094700
     26 HAF          0.8650    -0.5540     1.3080 ha         1 WDR       0.125000
     27 HAK          4.4890     0.3460    -2.8510 hc         1 WDR       0.063700
     28 HAKA         4.6910    -1.3770    -2.5420 hc         1 WDR       0.063700
     29 HAKB         3.0720    -0.6790    -2.6470 hc         1 WDR       0.063700
     30 HAN          2.5270    -0.1060     2.9750 hc         1 WDR       0.057700
     31 HANA         4.0540     0.6940     3.3430 hc         1 WDR       0.057700
     32 HANB         2.7540     1.5780     2.5330 hc         1 WDR       0.057700
     33 HAO         -0.0150     2.4960    -2.4720 ha         1 WDR       0.122000
     34 HAP          2.2850     1.8410    -1.9470 ha         1 WDR       0.118000
     35 HAR         -4.6740     1.2890     1.9000 h1         1 WDR       0.049367
     36 HARA        -4.7060    -0.3730     1.2910 h1         1 WDR       0.049367
     37 HARB        -3.6670     0.0560     2.6520 h1         1 WDR       0.049367
     38 HAU         -3.1780    -1.2020    -0.9470 h1         1 WDR       0.039200
     39 HAUA        -1.4700    -1.5370    -1.2730 h1         1 WDR       0.039200
     40 HAV         -2.7070    -3.4940    -1.7230 h1         1 WDR       0.025700
     41 HAVA        -1.7180    -3.7950    -0.2950 h1         1 WDR       0.025700
     42 HOAW        -3.9300    -4.4630     0.0030 ho         1 WDR       0.502000
@<TRIPOS>BOND
     1     1     2 1   
     2     1    17 1   
     3     1    19 2   
     4     2     3 1   
     5     2    24 1   
     6     3     4 ar  
     7     3    15 ar  
     8     4     5 1   
     9     4     6 ar  
    10     5    17 1   
    11     5    20 1   
    12     5    25 1   
    13     6     7 ar  
    14     6    26 1   
    15     7     8 1   
    16     7    16 ar  
    17     8     9 2   
    18     8    12 1   
    19     9    10 1   
    20     9    11 1   
    21    10    13 1   
    22    11    27 1   
    23    11    28 1   
    24    11    29 1   
    25    12    13 2   
    26    12    14 1   
    27    14    30 1   
    28    14    31 1   
    29    14    32 1   
    30    15    16 ar  
    31    15    33 1   
    32    16    34 1   
    33    17    18 1   
    34    18    35 1   
    35    18    36 1   
    36    18    37 1   
    37    20    21 1   
    38    21    22 1   
    39    21    38 1   
    40    21    39 1   
    41    22    23 1   
    42    22    40 1   
    43    22    41 1   
    44    23    42 1   
@<TRIPOS>SUBSTRUCTURE
     1 WDR         1 TEMP              0 ****  ****    0 ROOT
