@<TRIPOS>MOLECULE
WDS
   59    62     1     0     0
SMALL
abcg2


@<TRIPOS>ATOM
      1 C29          4.1270     4.8880    -1.7780 ca         1 WDS      -0.072000
      2 C31          4.8370     5.1110    -0.6090 ca         1 WDS      -0.156000
      3 C4          -2.2640    -2.8230    -0.6450 ca         1 WDS      -0.044000
      4 C9          -3.5120    -2.2440    -0.6240 ca         1 WDS      -0.099000
      5 C24          3.0830     3.9770    -1.7600 ca         1 WDS      -0.142000
      6 C6          -2.5130    -0.0510    -0.5180 ca         1 WDS      -0.088000
      7 C30          4.4650     4.4080     0.5290 ca         1 WDS       0.339900
      8 C1          -1.1200    -2.0210    -0.6200 ca         1 WDS      -0.195600
      9 C11         -3.6370    -0.8490    -0.5420 ca         1 WDS      -0.101600
     10 C2          -1.2370    -0.6290    -0.5630 ca         1 WDS       0.193400
     11 C20          2.7830     3.3270    -0.5680 ca         1 WDS       0.338300
     12 C3           0.2090    -2.6160    -0.6490 c          1 WDS       0.575600
     13 C10          1.0230    -0.3530    -0.5840 cc         1 WDS       0.529800
     14 C26         -5.6520     1.4700     2.5140 c5         1 WDS      -0.096400
     15 C27         -6.5820     2.2140     1.5610 c5         1 WDS      -0.096400
     16 C21         -4.5780     0.9300     1.5780 c5         1 WDS       0.100500
     17 C22         -6.6350     1.2970     0.3450 c5         1 WDS       0.100500
     18 C28          6.5770    -3.8250     2.0600 c3         1 WDS      -0.089100
     19 C16          1.6670     2.3260    -0.5040 c3         1 WDS       0.012300
     20 C23          5.1230    -3.3730     2.0950 c3         1 WDS      -0.074400
     21 C19          4.5900    -3.0060     0.7160 c3         1 WDS      -0.073400
     22 C15          3.1440    -2.5260     0.7510 c3         1 WDS      -0.096400
     23 N25          3.4650     3.5370     0.5550 nb         1 WDS      -0.659000
     24 N5          -0.1400     0.1870    -0.5450 nd         1 WDS      -0.665100
     25 N7           1.2600    -1.7030    -0.6480 n          1 WDS      -0.323300
     26 N17         -5.3210     0.6530     0.3470 n          1 WDS      -0.411800
     27 O8           0.4210    -3.8130    -0.6740 o          1 WDS      -0.529000
     28 O18         -5.7880    -0.5890    -1.4720 o          1 WDS      -0.596100
     29 S13          2.4440     0.6810    -0.5530 ss         1 WDS      -0.228200
     30 H1           4.3790     5.4150    -2.6880 ha         1 WDS       0.123000
     31 H2           5.6600     5.8100    -0.5730 ha         1 WDS       0.126000
     32 H3          -2.1650    -3.8990    -0.6890 ha         1 WDS       0.139000
     33 H4          -4.3960    -2.8660    -0.6580 ha         1 WDS       0.134000
     34 H5           2.5050     3.7740    -2.6520 ha         1 WDS       0.129000
     35 H6          -2.5860     1.0290    -0.4790 ha         1 WDS       0.135000
     36 H7           4.9980     4.5580     1.4610 h4         1 WDS       0.023100
     37 H8          -5.2310     2.1010     3.2950 hc         1 WDS       0.055200
     38 H9          -6.1830     0.6450     2.9950 hc         1 WDS       0.055200
     39 H10         -7.5720     2.3980     1.9770 hc         1 WDS       0.055200
     40 H11         -6.1490     3.1800     1.2890 hc         1 WDS       0.055200
     41 H12         -3.8060     1.6850     1.4100 h1         1 WDS       0.054450
     42 H13         -4.0940     0.0320     1.9590 h1         1 WDS       0.054450
     43 H14         -7.4240     0.5470     0.4480 h1         1 WDS       0.054450
     44 H15         -6.8050     1.8340    -0.5880 h1         1 WDS       0.054450
     45 H16          7.2250    -3.0310     1.6840 hc         1 WDS       0.032367
     46 H17          6.9350    -4.1020     3.0520 hc         1 WDS       0.032367
     47 H18          6.7060    -4.6910     1.4070 hc         1 WDS       0.032367
     48 H19          1.1020     2.4210     0.4210 h1         1 WDS       0.094200
     49 H20          0.9900     2.4230    -1.3490 h1         1 WDS       0.094200
     50 H21          4.5000    -4.1640     2.5230 hc         1 WDS       0.039700
     51 H22          5.0230    -2.5130     2.7630 hc         1 WDS       0.039700
     52 H23          5.2220    -2.2270     0.2770 hc         1 WDS       0.039700
     53 H24          4.6710    -3.8740     0.0530 hc         1 WDS       0.039700
     54 H25          2.5140    -3.2830     1.2260 hc         1 WDS       0.055700
     55 H26          3.0710    -1.6240     1.3660 hc         1 WDS       0.055700
     56 H27          3.2720    -1.5470    -1.1800 h1         1 WDS       0.071200
     57 H28          2.6130    -3.1550    -1.2440 h1         1 WDS       0.071200
     58 C14         -5.0090    -0.2500    -0.5890 c          1 WDS       0.611700
     59 C12          2.6220    -2.2440    -0.6500 c3         1 WDS       0.088000
@<TRIPOS>BOND
     1     1     2 ar  
     2     1     5 ar  
     3     1    30 1   
     4     2     7 ar  
     5     2    31 1   
     6     3     4 ar  
     7     3     8 ar  
     8     3    32 1   
     9     4     9 ar  
    10     4    33 1   
    11     5    11 ar  
    12     5    34 1   
    13     6     9 ar  
    14     6    10 ar  
    15     6    35 1   
    16     7    23 ar  
    17     7    36 1   
    18     8    10 ar  
    19     8    12 1   
    20     9    58 1   
    21    10    24 1   
    22    11    19 1   
    23    11    23 ar  
    24    12    25 1   
    25    12    27 2   
    26    13    24 2   
    27    13    25 1   
    28    13    29 1   
    29    14    15 1   
    30    14    16 1   
    31    14    37 1   
    32    14    38 1   
    33    15    17 1   
    34    15    39 1   
    35    15    40 1   
    36    16    26 1   
    37    16    41 1   
    38    16    42 1   
    39    17    26 1   
    40    17    43 1   
    41    17    44 1   
    42    18    20 1   
    43    18    45 1   
    44    18    46 1   
    45    18    47 1   
    46    19    29 1   
    47    19    48 1   
    48    19    49 1   
    49    20    21 1   
    50    20    50 1   
    51    20    51 1   
    52    21    22 1   
    53    21    52 1   
    54    21    53 1   
    55    22    54 1   
    56    22    55 1   
    57    22    59 1   
    58    25    59 1   
    59    26    58 1   
    60    28    58 2   
    61    56    59 1   
    62    57    59 1   
@<TRIPOS>SUBSTRUCTURE
     1 WDS         1 TEMP              0 ****  ****    0 ROOT
