@<TRIPOS>MOLECULE
WDS
   59    62     1     0     0
SMALL
No Charge or Current Charge


@<TRIPOS>ATOM
      1 C29          4.2530     4.7350    -1.4570 ca         1 WDS      -0.072000
      2 C31          4.4410     5.3880    -0.2290 ca         1 WDS      -0.156000
      3 C4          -2.3410    -3.0360    -0.6460 ca         1 WDS      -0.044000
      4 C9          -3.6130    -2.4470    -0.5780 ca         1 WDS      -0.099000
      5 C24          3.3030     3.7020    -1.5170 ca         1 WDS      -0.142000
      6 C6          -2.5780    -0.2580    -0.4750 ca         1 WDS      -0.088000
      7 C30          3.6790     4.9890     0.8830 ca         1 WDS       0.339900
      8 C1          -1.1830    -2.2310    -0.6230 ca         1 WDS      -0.195600
      9 C11         -3.7480    -1.0490    -0.4670 ca         1 WDS      -0.101600
     10 C2          -1.2980    -0.8370    -0.5440 ca         1 WDS       0.193400
     11 C20          2.5810     3.3600    -0.3570 ca         1 WDS       0.338300
     12 C3           0.1700    -2.8350    -0.6940 c          1 WDS       0.575600
     13 C10          0.9880    -0.5630    -0.6010 cc         1 WDS       0.529800
     14 C26         -5.5160     1.9470     2.3680 c5         1 WDS      -0.096400
     15 C27         -6.3170     2.6600     1.2530 c5         1 WDS      -0.096400
     16 C21         -4.5290     1.0800     1.5430 c5         1 WDS       0.100500
     17 C22         -6.6180     1.4710     0.3110 c5         1 WDS       0.100500
     18 C28          6.8450    -3.8460     1.8390 c3         1 WDS      -0.089100
     19 C16          1.5470     2.2470    -0.3880 c3         1 WDS       0.012300
     20 C23          5.4000    -3.3170     1.9230 c3         1 WDS      -0.074400
     21 C19          4.7320    -3.1600     0.5400 c3         1 WDS      -0.073400
     22 C15          3.2850    -2.6290     0.6250 c3         1 WDS      -0.096400
     23 N25          2.7630     3.9930     0.8280 nb         1 WDS      -0.659000
     24 N5          -0.2020     0.0310    -0.5350 nd         1 WDS      -0.665100
     25 N7           1.2350    -1.9330    -0.6800 n          1 WDS      -0.323300
     26 N17         -5.3280     0.7490     0.3350 n          1 WDS      -0.411800
     27 O8           0.3290    -4.0490    -0.7540 o          1 WDS      -0.529000
     28 O18         -6.0580    -0.9250    -1.0460 o          1 WDS      -0.596100
     29 S13          2.3440     0.5790    -0.5860 ss         1 WDS      -0.228200
     30 H1           4.8260     5.0210    -2.3370 ha         1 WDS       0.123000
     31 H2           5.1630     6.1940    -0.1310 ha         1 WDS       0.126000
     32 H3          -2.2610    -4.1200    -0.7190 ha         1 WDS       0.139000
     33 H4          -4.4970    -3.0820    -0.5970 ha         1 WDS       0.134000
     34 H5           3.1280     3.1690    -2.4480 ha         1 WDS       0.129000
     35 H6          -2.6520     0.8250    -0.4590 ha         1 WDS       0.135000
     36 H7           3.8060     5.4800     1.8480 h4         1 WDS       0.023100
     37 H8          -5.0010     2.6450     3.0380 hc         1 WDS       0.055200
     38 H9          -6.1700     1.3200     2.9870 hc         1 WDS       0.055200
     39 H10         -7.2280     3.1430     1.6230 hc         1 WDS       0.055200
     40 H11         -5.7140     3.4260     0.7510 hc         1 WDS       0.055200
     41 H12         -3.6410     1.6670     1.2780 h1         1 WDS       0.054450
     42 H13         -4.2060     0.1860     2.0930 h1         1 WDS       0.054450
     43 H14         -7.4280     0.8390     0.7000 h1         1 WDS       0.054450
     44 H15         -6.8880     1.8040    -0.7000 h1         1 WDS       0.054450
     45 H16          7.4750    -3.1630     1.2580 hc         1 WDS       0.032367
     46 H17          7.2760    -3.9400     2.8430 hc         1 WDS       0.032367
     47 H18          6.8690    -4.8330     1.3610 hc         1 WDS       0.032367
     48 H19          0.9630     2.2570     0.5400 h1         1 WDS       0.094200
     49 H20          0.8610     2.4220    -1.2260 h1         1 WDS       0.094200
     50 H21          4.8050    -4.0020     2.5400 hc         1 WDS       0.039700
     51 H22          5.4050    -2.3470     2.4360 hc         1 WDS       0.039700
     52 H23          5.3320    -2.4760    -0.0740 hc         1 WDS       0.039700
     53 H24          4.7300    -4.1320     0.0290 hc         1 WDS       0.039700
     54 H25          2.6830    -3.3140     1.2340 hc         1 WDS       0.055700
     55 H26          3.2870    -1.6610     1.1410 hc         1 WDS       0.055700
     56 H27          3.2350    -1.8190    -1.3900 h1         1 WDS       0.071200
     57 H28          2.6160    -3.4490    -1.2640 h1         1 WDS       0.071200
     58 C14         -5.1330    -0.4370    -0.4060 c          1 WDS       0.611700
     59 C12          2.6200    -2.4740    -0.7600 c3         1 WDS       0.088000
@<TRIPOS>BOND
     1     1     2 ar  
     2     1     5 ar  
     3     1    30 1   
     4     2     7 ar  
     5     2    31 1   
     6     3     4 ar  
     7     3     8 ar  
     8     3    32 1   
     9     4     9 ar  
    10     4    33 1   
    11     5    11 ar  
    12     5    34 1   
    13     6     9 ar  
    14     6    10 ar  
    15     6    35 1   
    16     7    23 ar  
    17     7    36 1   
    18     8    10 ar  
    19     8    12 1   
    20     9    58 1   
    21    10    24 1   
    22    11    19 1   
    23    11    23 ar  
    24    12    25 1   
    25    12    27 2   
    26    13    24 2   
    27    13    25 1   
    28    13    29 1   
    29    14    15 1   
    30    14    16 1   
    31    14    37 1   
    32    14    38 1   
    33    15    17 1   
    34    15    39 1   
    35    15    40 1   
    36    16    26 1   
    37    16    41 1   
    38    16    42 1   
    39    17    26 1   
    40    17    43 1   
    41    17    44 1   
    42    18    20 1   
    43    18    45 1   
    44    18    46 1   
    45    18    47 1   
    46    19    29 1   
    47    19    48 1   
    48    19    49 1   
    49    20    21 1   
    50    20    50 1   
    51    20    51 1   
    52    21    22 1   
    53    21    52 1   
    54    21    53 1   
    55    22    54 1   
    56    22    55 1   
    57    22    59 1   
    58    25    59 1   
    59    26    58 1   
    60    28    58 2   
    61    56    59 1   
    62    57    59 1   
@<TRIPOS>SUBSTRUCTURE
     1 WDS         1 TEMP              0 ****  ****    0 ROOT
