@<TRIPOS>MOLECULE
WDT
   28    29     1     0     0
SMALL
abcg2


@<TRIPOS>ATOM
      1 C17          4.0350     2.3290     0.1000 ca         1 WDT      -0.051000
      2 C14          3.7280     1.6600     1.2780 ca         1 WDT      -0.126500
      3 C15          3.5960     1.8370    -1.1230 ca         1 WDT      -0.126500
      4 C9          -1.9190    -0.0780     1.3850 ca         1 WDT      -0.023000
      5 C10          2.9800     0.4940     1.2420 ca         1 WDT      -0.014500
      6 C11          2.8470     0.6720    -1.1750 ca         1 WDT      -0.014500
      7 C4          -0.6430    -0.5820     1.3190 ca         1 WDT      -0.085000
      8 C3          -0.7940    -0.6060    -1.1020 ca         1 WDT      -0.082000
      9 C12         -2.6430     0.1690     0.2180 ca         1 WDT      -0.260200
     10 C8          -2.0960    -0.0920    -1.0520 ca         1 WDT       0.224100
     11 C5           2.5450     0.0170     0.0120 ca         1 WDT      -0.269500
     12 C1          -0.0990    -0.8320     0.0610 ca         1 WDT      -0.168500
     13 O19         -4.6110     0.9190    -0.6700 o          1 WDT      -0.402500
     14 O18         -4.4150     0.9120     1.4500 o          1 WDT      -0.402500
     15 O13         -2.7050     0.1000    -2.2080 oh         1 WDT      -0.514100
     16 S2           1.5700    -1.4600    -0.0430 sy         1 WDT       1.017000
     17 H1           4.6200     3.2380     0.1350 ha         1 WDT       0.120000
     18 H2           4.0740     2.0430     2.2290 ha         1 WDT       0.123000
     19 H3           3.8380     2.3570    -2.0390 ha         1 WDT       0.123000
     20 H4          -2.3620     0.1230     2.3490 ha         1 WDT       0.153000
     21 H5           2.7490    -0.0290     2.1600 ha         1 WDT       0.136500
     22 H6           2.5120     0.2860    -2.1280 ha         1 WDT       0.136500
     23 H7          -0.0940    -0.7780     2.2280 ha         1 WDT       0.150000
     24 H8          -0.3650    -0.8160    -2.0730 ha         1 WDT       0.164000
     25 H9          -3.6000     0.4530    -2.0490 ho         1 WDT       0.521000
     26 N16         -3.9760     0.7010     0.3500 no         1 WDT       0.701200
     27 O6           1.7340    -2.0790    -1.3520 o          1 WDT      -0.514000
     28 O7           1.8230    -2.2310     1.1660 o          1 WDT      -0.514000
@<TRIPOS>BOND
     1     1     2 ar  
     2     1     3 ar  
     3     1    17 1   
     4     2     5 ar  
     5     2    18 1   
     6     3     6 ar  
     7     3    19 1   
     8     4     7 ar  
     9     4     9 ar  
    10     4    20 1   
    11     5    11 ar  
    12     5    21 1   
    13     6    11 ar  
    14     6    22 1   
    15     7    12 ar  
    16     7    23 1   
    17     8    10 ar  
    18     8    12 ar  
    19     8    24 1   
    20     9    10 ar  
    21     9    26 1   
    22    10    15 1   
    23    11    16 1   
    24    12    16 1   
    25    13    26 1   
    26    14    26 1   
    27    15    25 1   
    28    16    27 2   
    29    16    28 2   
@<TRIPOS>SUBSTRUCTURE
     1 WDT         1 TEMP              0 ****  ****    0 ROOT
