@<TRIPOS>MOLECULE
WDT
   28    29     1     0     0
SMALL
No Charge or Current Charge


@<TRIPOS>ATOM
      1 C17          4.1290     2.3650     0.0560 ca         1 WDT      -0.051000
      2 C14          3.7890     1.7250     1.2600 ca         1 WDT      -0.126500
      3 C15          3.7040     1.8240    -1.1690 ca         1 WDT      -0.126500
      4 C9          -2.0160    -0.1620     1.3990 ca         1 WDT      -0.023000
      5 C10          3.0250     0.5450     1.2420 ca         1 WDT      -0.014500
      6 C11          2.9400     0.6440    -1.1950 ca         1 WDT      -0.014500
      7 C4          -0.7070    -0.6670     1.3300 ca         1 WDT      -0.085000
      8 C3          -0.8010    -0.5620    -1.0950 ca         1 WDT      -0.082000
      9 C12         -2.7400     0.1510     0.2190 ca         1 WDT      -0.260200
     10 C8          -2.1100    -0.0560    -1.0360 ca         1 WDT       0.224100
     11 C5           2.6010    -0.0030     0.0120 ca         1 WDT      -0.269500
     12 C1          -0.0900    -0.8750     0.0810 ca         1 WDT      -0.168500
     13 O19         -4.7600     0.9590    -0.6890 o          1 WDT      -0.402500
     14 O18         -4.6050     0.8390     1.4800 o          1 WDT      -0.402500
     15 O13         -2.7310     0.2210    -2.2200 oh         1 WDT      -0.514100
     16 S2           1.6040    -1.5100    -0.0140 sy         1 WDT       1.017000
     17 H1           4.7200     3.2780     0.0730 ha         1 WDT       0.120000
     18 H2           4.1160     2.1450     2.2080 ha         1 WDT       0.123000
     19 H3           3.9650     2.3210    -2.1010 ha         1 WDT       0.123000
     20 H4          -2.4590    -0.0160     2.3830 ha         1 WDT       0.153000
     21 H5           2.7660     0.0630     2.1840 ha         1 WDT       0.136500
     22 H6           2.6140     0.2410    -2.1530 ha         1 WDT       0.136500
     23 H7          -0.1760    -0.8940     2.2530 ha         1 WDT       0.150000
     24 H8          -0.3390    -0.7080    -2.0700 ha         1 WDT       0.164000
     25 H9          -3.6310     0.5620    -2.0090 ho         1 WDT       0.521000
     26 N16         -4.1360     0.6880     0.3460 no         1 WDT       0.701200
     27 O6           1.7780    -2.1390    -1.3310 o          1 WDT      -0.514000
     28 O7           1.8800    -2.2510     1.2260 o          1 WDT      -0.514000
@<TRIPOS>BOND
     1     1     2 ar  
     2     1     3 ar  
     3     1    17 1   
     4     2     5 ar  
     5     2    18 1   
     6     3     6 ar  
     7     3    19 1   
     8     4     7 ar  
     9     4     9 ar  
    10     4    20 1   
    11     5    11 ar  
    12     5    21 1   
    13     6    11 ar  
    14     6    22 1   
    15     7    12 ar  
    16     7    23 1   
    17     8    10 ar  
    18     8    12 ar  
    19     8    24 1   
    20     9    10 ar  
    21     9    26 1   
    22    10    15 1   
    23    11    16 1   
    24    12    16 1   
    25    13    26 1   
    26    14    26 1   
    27    15    25 1   
    28    16    27 2   
    29    16    28 2   
@<TRIPOS>SUBSTRUCTURE
     1 WDT         1 TEMP              0 ****  ****    0 ROOT
