@<TRIPOS>MOLECULE
WDU
   28    29     1     0     0
SMALL
No Charge or Current Charge


@<TRIPOS>ATOM
      1 C15         -3.5410    -0.5440    -1.2170 ca         1 WDU      -0.084500
      2 C16         -3.5400    -0.5760     1.2180 ca         1 WDU      -0.084500
      3 C17         -4.7410     0.1910    -1.2050 ca         1 WDU      -0.106000
      4 C18         -4.7390     0.1580     1.2280 ca         1 WDU      -0.106000
      5 C14         -2.9370    -0.9330    -0.0040 ca         1 WDU      -0.118300
      6 C19         -5.3380     0.5400     0.0170 ca         1 WDU       0.129000
      7 C2           3.2170    -0.2700    -0.0010 cc         1 WDU       0.137000
      8 C1           1.8110    -0.0980     0.0020 cc         1 WDU       0.186500
      9 C5           3.7780     0.9800     0.0150 cd         1 WDU      -0.284200
     10 C4           0.8330    -1.2410    -0.0110 c          1 WDU       0.532600
     11 C11         -1.6370    -1.7220    -0.0160 c3         1 WDU       0.155300
     12 N3           1.4540     1.1820     0.0190 nd         1 WDU      -0.462800
     13 N7           2.6740     1.8520     0.0260 na         1 WDU       0.061800
     14 N8          -0.4840    -0.8280    -0.0050 ns         1 WDU      -0.493900
     15 N10          5.1710     1.3770     0.0190 no         1 WDU       0.733200
     16 O13          5.4120     2.5900     0.0340 o          1 WDU      -0.377000
     17 O9           1.1150    -2.4340    -0.0270 o          1 WDU      -0.579100
     18 O12          6.0400     0.4990     0.0070 o          1 WDU      -0.377000
     19 Cl1         -6.8370     1.4600     0.0300 cl         1 WDU      -0.196000
     20 H1          -3.0820    -0.8100    -2.1670 ha         1 WDU       0.122500
     21 H2          -3.0800    -0.8670     2.1610 ha         1 WDU       0.122500
     22 H3          -5.2060     0.4890    -2.1410 ha         1 WDU       0.133000
     23 H4          -5.2030     0.4320     2.1720 ha         1 WDU       0.133000
     24 H5          -1.5910    -2.3780     0.8640 h1         1 WDU       0.062200
     25 H6          -1.5920    -2.3550    -0.9120 h1         1 WDU       0.062200
     26 H8          -0.6420     0.1740     0.0080 hn         1 WDU       0.337500
     27 H7           2.7150     2.8730     0.0390 hn         1 WDU       0.415000
     28 Cl6          4.0550    -1.8030    -0.0210 cl         1 WDU      -0.051000
@<TRIPOS>BOND
     1     1     3 ar  
     2     1     5 ar  
     3     1    20 1   
     4     2     4 ar  
     5     2     5 ar  
     6     2    21 1   
     7     3     6 ar  
     8     3    22 1   
     9     4     6 ar  
    10     4    23 1   
    11     5    11 1   
    12     6    19 1   
    13     7     8 1   
    14     7     9 2   
    15     7    28 1   
    16     8    10 1   
    17     8    12 2   
    18     9    13 1   
    19     9    15 1   
    20    10    14 1   
    21    10    17 2   
    22    11    14 1   
    23    11    24 1   
    24    11    25 1   
    25    12    13 1   
    26    13    27 1   
    27    14    26 1   
    28    15    16 1   
    29    15    18 1   
@<TRIPOS>SUBSTRUCTURE
     1 WDU         1 TEMP              0 ****  ****    0 ROOT
