@<TRIPOS>MOLECULE
WDU
   28    29     1     0     0
SMALL
bcc


@<TRIPOS>ATOM
      1 C15         -3.4700    -0.5240    -1.1850 ca         1 WDU      -0.102500
      2 C16         -3.5230    -0.5550     1.2090 ca         1 WDU      -0.102500
      3 C17         -4.6410     0.2170    -1.2110 ca         1 WDU      -0.124000
      4 C18         -4.6950     0.1870     1.2020 ca         1 WDU      -0.124000
      5 C14         -2.9000    -0.9220     0.0210 ca         1 WDU      -0.118300
      6 C19         -5.2440     0.5660    -0.0120 ca         1 WDU       0.037400
      7 C2           3.2130    -0.3630    -0.0500 cc         1 WDU      -0.019900
      8 C1           1.8190    -0.1990    -0.0170 cc         1 WDU       0.251800
      9 C5           3.6950     0.9280    -0.0000 cd         1 WDU      -0.233500
     10 C4           0.7730    -1.2520    -0.0400 c          1 WDU       0.599600
     11 C11         -1.6200    -1.7070     0.0390 c3         1 WDU       0.155300
     12 N3           1.5080     1.0880     0.0450 nd         1 WDU      -0.462800
     13 N7           2.6300     1.7480     0.0540 na         1 WDU       0.061400
     14 N8          -0.4850    -0.8020     0.0300 ns         1 WDU      -0.560900
     15 N10          5.0200     1.4370    -0.0010 no         1 WDU       0.353200
     16 O13          5.1430     2.6400     0.0390 o          1 WDU      -0.187000
     17 O9           1.0730    -2.4330    -0.1190 o          1 WDU      -0.579100
     18 O12          5.9220     0.6390    -0.0410 o          1 WDU      -0.187000
     19 CL1         -6.7110     1.4880    -0.0340 cl         1 WDU      -0.104400
     20 H1          -3.0010    -0.7980    -2.1220 ha         1 WDU       0.140500
     21 H2          -3.0960    -0.8550     2.1580 ha         1 WDU       0.140500
     22 H3          -5.0800     0.5120    -2.1550 ha         1 WDU       0.151000
     23 H4          -5.1750     0.4590     2.1330 ha         1 WDU       0.151000
     24 H5          -1.5830    -2.3460     0.9250 h1         1 WDU       0.062200
     25 H6          -1.5690    -2.3640    -0.8320 h1         1 WDU       0.062200
     26 H8          -0.6510     0.1880     0.1260 hn         1 WDU       0.337500
     27 H7           2.6320     2.7590     0.0980 hn         1 WDU       0.364700
     28 CL6          4.1010    -1.7970    -0.1300 cl         1 WDU       0.040600
@<TRIPOS>BOND
     1     1     3 ar  
     2     1     5 ar  
     3     1    20 1   
     4     2     4 ar  
     5     2     5 ar  
     6     2    21 1   
     7     3     6 ar  
     8     3    22 1   
     9     4     6 ar  
    10     4    23 1   
    11     5    11 1   
    12     6    19 1   
    13     7     8 1   
    14     7     9 2   
    15     7    28 1   
    16     8    10 1   
    17     8    12 2   
    18     9    13 1   
    19     9    15 1   
    20    10    14 1   
    21    10    17 2   
    22    11    14 1   
    23    11    24 1   
    24    11    25 1   
    25    12    13 1   
    26    13    27 1   
    27    14    26 1   
    28    15    16 1   
    29    15    18 1   
@<TRIPOS>SUBSTRUCTURE
     1 WDU         1 TEMP              0 ****  ****    0 ROOT
