@<TRIPOS>MOLECULE
WDV
   45    47     1     0     0
SMALL
No Charge or Current Charge


@<TRIPOS>ATOM
      1 C8           5.0180    -2.2830     0.6550 ca         1 WDV      -0.086000
      2 C11          5.7090    -1.0680     0.5250 ca         1 WDV      -0.092000
      3 C4           3.6390    -2.3440     0.3940 ca         1 WDV      -0.143000
      4 C24         -5.8330     0.4230     1.2920 ca         1 WDV       0.005000
      5 C22         -4.8960    -0.4950     1.7930 ca         1 WDV      -0.185000
      6 C3           3.6380     0.0240    -0.1270 ca         1 WDV      -0.104000
      7 C19         -4.7310     0.3340    -0.8860 ca         1 WDV       0.006000
      8 C7           5.0270     0.1000     0.1230 ca         1 WDV      -0.165300
      9 C18         -3.7900    -0.5860    -0.3800 ca         1 WDV      -0.223300
     10 C1           2.9340    -1.1890     0.0040 ca         1 WDV       0.291000
     11 C21         -5.7550     0.8470    -0.0550 ca         1 WDV      -0.240200
     12 C20         -3.8860    -0.9920     0.9640 ca         1 WDV       0.228100
     13 C5           0.8710    -2.4890    -0.7150 c6         1 WDV       0.196300
     14 C6           0.6150    -0.3120     0.4820 c6         1 WDV       0.196300
     15 C9          -0.4840    -2.2170    -1.4430 c6         1 WDV       0.152800
     16 C10         -0.7340    -0.0880    -0.2730 c6         1 WDV       0.152800
     17 C17         -2.7200    -1.1600    -1.3090 c3         1 WDV       0.210100
     18 C12          5.7660     1.4370    -0.0190 c3         1 WDV       0.354300
     19 N2           1.5420    -1.2290    -0.2570 nh         1 WDV      -0.797400
     20 N13         -1.4180    -1.3750    -0.6320 n3         1 WDV      -0.748600
     21 N25         -6.7500     1.8250    -0.5970 no         1 WDV       0.704200
     22 O27         -6.6470     2.1700    -1.7810 o          1 WDV      -0.409500
     23 O26         -7.6320     2.2450     0.1640 o          1 WDV      -0.409500
     24 O23         -2.9650    -1.8530     1.4580 oh         1 WDV      -0.553100
     25 F14          7.0880     1.2770    -0.2560 f          1 WDV      -0.113667
     26 F15          5.2800     2.1830    -1.0370 f          1 WDV      -0.113667
     27 F16          5.6540     2.1810     1.1040 f          1 WDV      -0.113667
     28 H1           5.5520    -3.1800     0.9640 ha         1 WDV       0.120000
     29 H2           6.7760    -1.0410     0.7380 ha         1 WDV       0.134000
     30 H3           3.1220    -3.2920     0.5120 ha         1 WDV       0.117000
     31 H5          -4.9510    -0.8160     2.8300 ha         1 WDV       0.142000
     32 H6           3.0970     0.9140    -0.4360 ha         1 WDV       0.131000
     33 H7          -4.6620     0.6410    -1.9290 ha         1 WDV       0.146000
     34 H8           0.6790    -3.1420     0.1490 h1         1 WDV       0.051200
     35 H9           1.5270    -3.0400    -1.4050 h1         1 WDV       0.051200
     36 H10          1.0830     0.6690     0.6470 h1         1 WDV       0.051200
     37 H11          0.3950    -0.7330     1.4730 h1         1 WDV       0.051200
     38 H12         -0.2680    -1.7240    -2.4020 h1         1 WDV       0.054700
     39 H13         -0.9490    -3.1850    -1.6800 h1         1 WDV       0.054700
     40 H14         -1.3840     0.5330     0.3600 h1         1 WDV       0.054700
     41 H15         -0.5280     0.4950    -1.1830 h1         1 WDV       0.054700
     42 H16         -3.1000    -2.1160    -1.6970 h1         1 WDV       0.055700
     43 H17         -2.5890    -0.4970    -2.1770 h1         1 WDV       0.055700
     44 H19         -2.2540    -1.8490     0.7530 ho         1 WDV       0.526000
     45 H4          -6.6100     0.8000     1.9550 ha         1 WDV       0.152000
@<TRIPOS>BOND
     1     1     2 ar  
     2     1     3 ar  
     3     1    28 1   
     4     2     8 ar  
     5     2    29 1   
     6     3    10 ar  
     7     3    30 1   
     8     4     5 ar  
     9     4    11 ar  
    10     4    45 1   
    11     5    12 ar  
    12     5    31 1   
    13     6     8 ar  
    14     6    10 ar  
    15     6    32 1   
    16     7     9 ar  
    17     7    11 ar  
    18     7    33 1   
    19     8    18 1   
    20     9    12 ar  
    21     9    17 1   
    22    10    19 1   
    23    11    21 1   
    24    12    24 1   
    25    13    15 1   
    26    13    19 1   
    27    13    34 1   
    28    13    35 1   
    29    14    16 1   
    30    14    19 1   
    31    14    36 1   
    32    14    37 1   
    33    15    20 1   
    34    15    38 1   
    35    15    39 1   
    36    16    20 1   
    37    16    40 1   
    38    16    41 1   
    39    17    20 1   
    40    17    42 1   
    41    17    43 1   
    42    18    25 1   
    43    18    26 1   
    44    18    27 1   
    45    21    22 1   
    46    21    23 1   
    47    24    44 1   
@<TRIPOS>SUBSTRUCTURE
     1 WDV         1 TEMP              0 ****  ****    0 ROOT
