@<TRIPOS>MOLECULE
WDV
   45    47     1     0     0
SMALL
bcc


@<TRIPOS>ATOM
      1 C8           4.8890    -2.2980     0.4730 ca         1 WDV      -0.104000
      2 C11          5.5830    -1.1000     0.4820 ca         1 WDV      -0.110000
      3 C4           3.5290    -2.3400     0.2030 ca         1 WDV      -0.161000
      4 C24         -5.6730     0.4370     1.3190 ca         1 WDV      -0.013000
      5 C22         -4.7050    -0.4070     1.8190 ca         1 WDV      -0.203000
      6 C3           3.5280     0.0400    -0.0840 ca         1 WDV      -0.122000
      7 C19         -4.6420     0.3030    -0.8650 ca         1 WDV      -0.012000
      8 C7           4.8840     0.0690     0.1990 ca         1 WDV      -0.165300
      9 C18         -3.6800    -0.5580    -0.3790 ca         1 WDV      -0.223300
     10 C1           2.8200    -1.1690    -0.0860 ca         1 WDV       0.152600
     11 C21         -5.6350     0.7950    -0.0240 ca         1 WDV      -0.240200
     12 C20         -3.7010    -0.9090     0.9870 ca         1 WDV       0.228100
     13 C5           0.8070    -2.4460    -0.6130 c6         1 WDV       0.196300
     14 C6           0.6020    -0.2210     0.2750 c6         1 WDV       0.196300
     15 C9          -0.4940    -2.2460    -1.3670 c6         1 WDV       0.152800
     16 C10         -0.6910    -0.0350    -0.4900 c6         1 WDV       0.152800
     17 C17         -2.6670    -1.1800    -1.3040 c3         1 WDV       0.210100
     18 C12          5.5840     1.3920     0.2320 c3         1 WDV       0.718200
     19 N2           1.4660    -1.1730    -0.4080 nh         1 WDV      -0.659000
     20 N13         -1.3650    -1.3170    -0.6600 n3         1 WDV      -0.748600
     21 N25         -6.6350     1.6860    -0.5520 no         1 WDV       0.324200
     22 O27         -6.5690     2.0000    -1.7210 o          1 WDV      -0.219500
     23 O26         -7.5020     2.0850     0.1950 o          1 WDV      -0.219500
     24 O23         -2.7800    -1.7120     1.5030 oh         1 WDV      -0.514100
     25 F14          6.9070     1.2760     0.0740 f          1 WDV      -0.234967
     26 F15          5.1480     2.2240    -0.7230 f          1 WDV      -0.234967
     27 F16          5.3890     2.0230     1.4020 f          1 WDV      -0.234967
     28 H1           5.4100    -3.2200     0.6950 ha         1 WDV       0.138000
     29 H2           6.6410    -1.0900     0.7020 ha         1 WDV       0.152000
     30 H3           3.0290    -3.2980     0.2300 ha         1 WDV       0.135000
     31 H5          -4.7150    -0.6850     2.8650 ha         1 WDV       0.160000
     32 H6           3.0120     0.9570    -0.3350 ha         1 WDV       0.149000
     33 H7          -4.6190     0.5800    -1.9110 ha         1 WDV       0.164000
     34 H8           0.6050    -2.9630     0.3370 h1         1 WDV       0.051200
     35 H9           1.4420    -3.0960    -1.2140 h1         1 WDV       0.051200
     36 H10          1.0910     0.7470     0.3620 h1         1 WDV       0.051200
     37 H11          0.3790    -0.5640     1.2960 h1         1 WDV       0.051200
     38 H12         -0.2780    -1.8840    -2.3820 h1         1 WDV       0.054700
     39 H13         -1.0010    -3.2080    -1.4600 h1         1 WDV       0.054700
     40 H14         -1.3360     0.6480     0.0670 h1         1 WDV       0.054700
     41 H15         -0.4830     0.4270    -1.4650 h1         1 WDV       0.054700
     42 H16         -3.0080    -2.1840    -1.5740 h1         1 WDV       0.055700
     43 H17         -2.6050    -0.6070    -2.2380 h1         1 WDV       0.055700
     44 H19         -2.0460    -1.7920     0.8220 ho         1 WDV       0.487000
     45 H4          -6.4400     0.8170     1.9780 ha         1 WDV       0.170000
@<TRIPOS>BOND
     1     1     2 ar  
     2     1     3 ar  
     3     1    28 1   
     4     2     8 ar  
     5     2    29 1   
     6     3    10 ar  
     7     3    30 1   
     8     4     5 ar  
     9     4    11 ar  
    10     4    45 1   
    11     5    12 ar  
    12     5    31 1   
    13     6     8 ar  
    14     6    10 ar  
    15     6    32 1   
    16     7     9 ar  
    17     7    11 ar  
    18     7    33 1   
    19     8    18 1   
    20     9    12 ar  
    21     9    17 1   
    22    10    19 1   
    23    11    21 1   
    24    12    24 1   
    25    13    15 1   
    26    13    19 1   
    27    13    34 1   
    28    13    35 1   
    29    14    16 1   
    30    14    19 1   
    31    14    36 1   
    32    14    37 1   
    33    15    20 1   
    34    15    38 1   
    35    15    39 1   
    36    16    20 1   
    37    16    40 1   
    38    16    41 1   
    39    17    20 1   
    40    17    42 1   
    41    17    43 1   
    42    18    25 1   
    43    18    26 1   
    44    18    27 1   
    45    21    22 1   
    46    21    23 1   
    47    24    44 1   
@<TRIPOS>SUBSTRUCTURE
     1 WDV         1 TEMP              0 ****  ****    0 ROOT
