@<TRIPOS>MOLECULE
WDW
   34    36     1     0     0
SMALL
abcg2


@<TRIPOS>ATOM
      1 C14        -11.1940    16.9680    25.2580 ca         1 WDW      -0.083000
      2 C10        -10.7130    16.7310    23.9840 ca         1 WDW      -0.124000
      3 C12        -12.7290    15.1030    25.1450 ca         1 WDW      -0.055000
      4 C11        -12.5840    13.8380    22.8680 cc         1 WDW      -0.194200
      5 C8         -12.2640    14.8270    23.8470 ca         1 WDW      -0.111800
      6 C15        -12.2010    16.1680    25.8520 ca         1 WDW      -0.109300
      7 C7         -11.2550    15.6510    23.2820 ca         1 WDW      -0.036200
      8 C13        -11.7850    14.0780    21.7670 cd         1 WDW      -0.133300
      9 C4         -14.3610    12.3640    17.9200 c2         1 WDW      -0.199200
     10 C5         -14.7920    12.4980    19.1700 c2         1 WDW      -0.251200
     11 C16        -11.5300    13.3570    20.5000 c          1 WDW       0.633300
     12 C3         -12.9120    12.1490    17.5950 c6         1 WDW      -0.069200
     13 C6         -13.8880    12.5350    20.3710 c6         1 WDW       0.137200
     14 C2         -12.1570    11.6930    18.8390 c6         1 WDW       0.096000
     15 C17        -12.6770    16.4930    27.2440 c3         1 WDW      -0.040800
     16 N9         -10.9870    15.1730    22.0300 na         1 WDW      -0.194700
     17 N1         -12.4800    12.5440    19.9840 n          1 WDW      -0.398800
     18 O18        -10.4220    13.5050    19.9590 o          1 WDW      -0.628100
     19 H1         -10.7890    17.7970    25.8260 ha         1 WDW       0.110000
     20 H2          -9.9430    17.3540    23.5470 ha         1 WDW       0.118000
     21 H3         -13.5010    14.4840    25.5880 ha         1 WDW       0.113000
     22 H4         -13.2920    13.0370    22.9820 ha         1 WDW       0.203000
     23 H6         -15.8480    12.6140    19.3860 ha         1 WDW       0.182000
     24 H7         -12.8100    11.3910    16.8140 hc         1 WDW       0.060700
     25 H8         -12.4660    13.0670    17.1950 hc         1 WDW       0.060700
     26 H9         -14.1030    13.4360    20.9400 h1         1 WDW       0.059700
     27 H10        -14.1010    11.6830    21.0300 h1         1 WDW       0.059700
     28 H11        -12.4590    10.6720    19.0920 h1         1 WDW       0.064700
     29 H12        -11.0830    11.7130    18.6890 h1         1 WDW       0.064700
     30 H13        -13.0870    17.5050    27.2950 hc         1 WDW       0.039367
     31 H14        -13.4510    15.7970    27.5670 hc         1 WDW       0.039367
     32 H15        -11.8550    16.4450    27.9640 hc         1 WDW       0.039367
     33 H16        -10.2720    15.5000    21.4010 hn         1 WDW       0.370000
     34 H5         -15.0700    12.3920    17.0990 ha         1 WDW       0.178000
@<TRIPOS>BOND
     1     1     2 ar  
     2     1     6 ar  
     3     1    19 1   
     4     2     7 ar  
     5     2    20 1   
     6     3     5 ar  
     7     3     6 ar  
     8     3    21 1   
     9     4     5 1   
    10     4     8 2   
    11     4    22 1   
    12     5     7 ar  
    13     6    15 1   
    14     7    16 1   
    15     8    11 1   
    16     8    16 1   
    17     9    10 2   
    18     9    12 1   
    19     9    34 1   
    20    10    13 1   
    21    10    23 1   
    22    11    17 1   
    23    11    18 2   
    24    12    14 1   
    25    12    24 1   
    26    12    25 1   
    27    13    17 1   
    28    13    26 1   
    29    13    27 1   
    30    14    17 1   
    31    14    28 1   
    32    14    29 1   
    33    15    30 1   
    34    15    31 1   
    35    15    32 1   
    36    16    33 1   
@<TRIPOS>SUBSTRUCTURE
     1 WDW         1 TEMP              0 ****  ****    0 ROOT
