@<TRIPOS>MOLECULE
WDW
   34    36     1     0     0
SMALL
No Charge or Current Charge


@<TRIPOS>ATOM
      1 C14        -11.1750    16.9540    25.3900 ca         1 WDW      -0.083000
      2 C10        -10.6160    16.7480    24.1100 ca         1 WDW      -0.124000
      3 C12        -12.7190    15.0860    25.0400 ca         1 WDW      -0.055000
      4 C11        -12.4260    13.9630    22.7470 cc         1 WDW      -0.194200
      5 C8         -12.1410    14.9150    23.7750 ca         1 WDW      -0.111800
      6 C15        -12.2250    16.1250    25.8610 ca         1 WDW      -0.109300
      7 C7         -11.1300    15.7090    23.3240 ca         1 WDW      -0.036200
      8 C13        -11.5740    14.2420    21.6720 cd         1 WDW      -0.133300
      9 C4         -14.4640    12.2400    17.9530 c2         1 WDW      -0.199200
     10 C5         -14.8550    12.5780    19.1930 c2         1 WDW      -0.251200
     11 C16        -11.4430    13.4900    20.3730 c          1 WDW       0.633300
     12 C3         -13.0110    11.9470    17.6260 c6         1 WDW      -0.069200
     13 C6         -13.8920    12.7220    20.3700 c6         1 WDW       0.137200
     14 C2         -12.2290    11.5820    18.9070 c6         1 WDW       0.096000
     15 C17        -12.8200    16.3570    27.2420 c3         1 WDW      -0.040800
     16 N9         -10.7350    15.3260    22.0530 na         1 WDW      -0.194700
     17 N1         -12.4580    12.5770    19.9890 n          1 WDW      -0.398800
     18 O18        -10.4610    13.6620    19.6580 o          1 WDW      -0.628100
     19 H1         -10.7930    17.7560    26.0180 ha         1 WDW       0.110000
     20 H2          -9.8090    17.3810    23.7470 ha         1 WDW       0.118000
     21 H3         -13.5250    14.4370    25.3750 ha         1 WDW       0.113000
     22 H4         -13.1240    13.1350    22.8290 ha         1 WDW       0.203000
     23 H6         -15.9060    12.7790    19.4100 ha         1 WDW       0.182000
     24 H7         -12.9450    11.1180    16.9080 hc         1 WDW       0.060700
     25 H8         -12.5580    12.8240    17.1430 hc         1 WDW       0.060700
     26 H9         -14.0630    13.7160    20.8060 h1         1 WDW       0.059700
     27 H10        -14.1390    11.9700    21.1330 h1         1 WDW       0.059700
     28 H11        -12.5660    10.5980    19.2630 h1         1 WDW       0.064700
     29 H12        -11.1590    11.4880    18.6760 h1         1 WDW       0.064700
     30 H13        -13.6280    17.0960    27.1990 hc         1 WDW       0.039367
     31 H14        -13.2340    15.4320    27.6610 hc         1 WDW       0.039367
     32 H15        -12.0640    16.7260    27.9450 hc         1 WDW       0.039367
     33 H16         -9.9880    15.7310    21.4980 hn         1 WDW       0.370000
     34 H5         -15.1840    12.1540    17.1350 ha         1 WDW       0.178000
@<TRIPOS>BOND
     1     1     2 ar  
     2     1     6 ar  
     3     1    19 1   
     4     2     7 ar  
     5     2    20 1   
     6     3     5 ar  
     7     3     6 ar  
     8     3    21 1   
     9     4     5 1   
    10     4     8 2   
    11     4    22 1   
    12     5     7 ar  
    13     6    15 1   
    14     7    16 1   
    15     8    11 1   
    16     8    16 1   
    17     9    10 2   
    18     9    12 1   
    19     9    34 1   
    20    10    13 1   
    21    10    23 1   
    22    11    17 1   
    23    11    18 2   
    24    12    14 1   
    25    12    24 1   
    26    12    25 1   
    27    13    17 1   
    28    13    26 1   
    29    13    27 1   
    30    14    17 1   
    31    14    28 1   
    32    14    29 1   
    33    15    30 1   
    34    15    31 1   
    35    15    32 1   
    36    16    33 1   
@<TRIPOS>SUBSTRUCTURE
     1 WDW         1 TEMP              0 ****  ****    0 ROOT
