@<TRIPOS>MOLECULE
WDX
   43    45     1     0     0
SMALL
No Charge or Current Charge


@<TRIPOS>ATOM
      1 C14         27.1350    -6.8630    23.7090 ca         1 WDX      -0.083000
      2 C10         26.0650    -6.1750    23.0960 ca         1 WDX      -0.124000
      3 C12         26.0770    -9.0110    23.1930 ca         1 WDX      -0.055000
      4 C11         23.8420    -8.7520    21.9520 cc         1 WDX      -0.196200
      5 C8          25.0330    -8.2930    22.5970 ca         1 WDX      -0.110800
      6 C15         27.1480    -8.2800    23.7580 ca         1 WDX      -0.109300
      7 C7          25.0220    -6.9300    22.5450 ca         1 WDX      -0.036200
      8 C13         23.1230    -7.6200    21.5510 cd         1 WDX      -0.131300
      9 C16         21.8360    -7.5890    20.7740 c          1 WDX       0.630300
     10 C3          19.4680    -9.7140    22.3970 c6         1 WDX      -0.097900
     11 C5          18.6020    -8.8920    20.1670 c6         1 WDX      -0.097900
     12 C2          20.9050    -9.7350    21.8200 c6         1 WDX       0.097500
     13 C6          20.0460    -8.9550    19.6200 c6         1 WDX       0.097500
     14 C4          18.3940    -9.9330    21.3000 c6         1 WDX      -0.058700
     15 C17         28.3050    -9.0110    24.4230 c3         1 WDX      -0.040800
     16 C19         16.9570    -9.8880    21.9060 c3         1 WDX      -0.078400
     17 C20         15.8170   -10.2320    20.9230 c3         1 WDX       0.163600
     18 N9          23.8870    -6.4720    21.8980 na         1 WDX      -0.197700
     19 N1          21.0620    -8.7730    20.6910 n          1 WDX      -0.397800
     20 O18         21.4730    -6.5640    20.2070 o          1 WDX      -0.623100
     21 O21         14.5660   -10.2480    21.6190 oh         1 WDX      -0.671000
     22 H1          27.9550    -6.2970    24.1450 ha         1 WDX       0.110000
     23 H2          26.0540    -5.0880    23.0540 ha         1 WDX       0.117000
     24 H3          26.0610   -10.0980    23.2190 ha         1 WDX       0.113000
     25 H4          23.5850    -9.7880    21.7460 ha         1 WDX       0.204000
     26 H5          19.2960    -8.7500    22.8950 hc         1 WDX       0.052450
     27 H6          19.3780   -10.4850    23.1740 hc         1 WDX       0.052450
     28 H7          18.3970    -7.8790    20.5420 hc         1 WDX       0.052450
     29 H8          17.9020    -9.0710    19.3410 hc         1 WDX       0.052450
     30 H9          21.1520   -10.7470    21.4690 h1         1 WDX       0.060700
     31 H10         21.5810    -9.4900    22.6480 h1         1 WDX       0.060700
     32 H11         20.2090    -9.9330    19.1450 h1         1 WDX       0.060700
     33 H12         20.1740    -8.1980    18.8340 h1         1 WDX       0.060700
     34 H13         18.5260   -10.9410    20.8810 hc         1 WDX       0.044700
     35 H14         29.2470    -8.4650    24.2940 hc         1 WDX       0.039367
     36 H15         28.1280    -9.1250    25.4990 hc         1 WDX       0.039367
     37 H16         28.4440   -10.0120    23.9980 hc         1 WDX       0.039367
     38 H17         16.9020   -10.5930    22.7450 hc         1 WDX       0.055200
     39 H18         16.7650    -8.8950    22.3300 hc         1 WDX       0.055200
     40 H19         15.7880    -9.4880    20.1160 h1         1 WDX       0.020700
     41 H20         16.0130   -11.2140    20.4720 h1         1 WDX       0.020700
     42 H21         23.6460    -5.5060    21.6970 hn         1 WDX       0.367000
     43 H22         13.8740   -10.4730    20.9570 ho         1 WDX       0.442000
@<TRIPOS>BOND
     1     1     2 ar  
     2     1     6 ar  
     3     1    22 1   
     4     2     7 ar  
     5     2    23 1   
     6     3     5 ar  
     7     3     6 ar  
     8     3    24 1   
     9     4     5 1   
    10     4     8 2   
    11     4    25 1   
    12     5     7 ar  
    13     6    15 1   
    14     7    18 1   
    15     8     9 1   
    16     8    18 1   
    17     9    19 1   
    18     9    20 2   
    19    10    12 1   
    20    10    14 1   
    21    10    26 1   
    22    10    27 1   
    23    11    13 1   
    24    11    14 1   
    25    11    28 1   
    26    11    29 1   
    27    12    19 1   
    28    12    30 1   
    29    12    31 1   
    30    13    19 1   
    31    13    32 1   
    32    13    33 1   
    33    14    16 1   
    34    14    34 1   
    35    15    35 1   
    36    15    36 1   
    37    15    37 1   
    38    16    17 1   
    39    16    38 1   
    40    16    39 1   
    41    17    21 1   
    42    17    40 1   
    43    17    41 1   
    44    18    42 1   
    45    21    43 1   
@<TRIPOS>SUBSTRUCTURE
     1 WDX         1 TEMP              0 ****  ****    0 ROOT
