@<TRIPOS>MOLECULE
WDX
   43    45     1     0     0
SMALL
abcg2


@<TRIPOS>ATOM
      1 C14         26.7970    -6.7630    23.8820 ca         1 WDX      -0.083000
      2 C10         25.6890    -6.2040    23.2730 ca         1 WDX      -0.124000
      3 C12         26.1870    -8.9970    23.1850 ca         1 WDX      -0.055000
      4 C11         23.9660    -9.0360    21.8170 cc         1 WDX      -0.196200
      5 C8          25.0480    -8.4660    22.5540 ca         1 WDX      -0.110800
      6 C15         27.0620    -8.1540    23.8480 ca         1 WDX      -0.109300
      7 C7          24.8160    -7.0670    22.6060 ca         1 WDX      -0.036200
      8 C13         23.1300    -8.0020    21.4510 cd         1 WDX      -0.131300
      9 C16         21.9360    -7.9190    20.5780 c          1 WDX       0.630300
     10 C3          19.6040    -9.9310    22.2120 c6         1 WDX      -0.097900
     11 C5          18.6440    -8.8100    20.1940 c6         1 WDX      -0.097900
     12 C2          20.9540   -10.0330    21.5030 c6         1 WDX       0.097500
     13 C6          20.0060    -8.9560    19.5210 c6         1 WDX       0.097500
     14 C4          18.4230    -9.9110    21.2390 c6         1 WDX      -0.058700
     15 C17         28.2890    -8.6910    24.5390 c3         1 WDX      -0.040800
     16 C19         17.1020    -9.7630    21.9950 c3         1 WDX      -0.078400
     17 C20         15.8710    -9.9080    21.1200 c3         1 WDX       0.163600
     18 N9          23.6550    -6.8170    21.9260 na         1 WDX      -0.197700
     19 N1          21.0890    -8.9700    20.5050 n          1 WDX      -0.397800
     20 O18         21.7750    -6.8850    19.9100 o          1 WDX      -0.623100
     21 O21         14.7140    -9.8740    21.9680 oh         1 WDX      -0.671000
     22 H1          27.4920    -6.1150    24.4040 ha         1 WDX       0.110000
     23 H2          25.5050    -5.1380    23.3100 ha         1 WDX       0.117000
     24 H3          26.3780   -10.0630    23.1540 ha         1 WDX       0.113000
     25 H4          23.8380   -10.0760    21.5680 ha         1 WDX       0.204000
     26 H5          19.5930    -9.0150    22.8140 hc         1 WDX       0.052450
     27 H6          19.5100   -10.7730    22.9020 hc         1 WDX       0.052450
     28 H7          18.5820    -7.8300    20.6780 hc         1 WDX       0.052450
     29 H8          17.8710    -8.8420    19.4240 hc         1 WDX       0.052450
     30 H9          21.0410   -10.9970    20.9930 h1         1 WDX       0.060700
     31 H10         21.7560    -9.9590    22.2260 h1         1 WDX       0.060700
     32 H11         20.0460    -9.9050    18.9770 h1         1 WDX       0.060700
     33 H12         20.1900    -8.1470    18.8210 h1         1 WDX       0.060700
     34 H13         18.4100   -10.8730    20.7110 hc         1 WDX       0.044700
     35 H14         29.2000    -8.2580    24.1180 hc         1 WDX       0.039367
     36 H15         28.2810    -8.4460    25.6040 hc         1 WDX       0.039367
     37 H16         28.3520    -9.7740    24.4400 hc         1 WDX       0.039367
     38 H17         17.0550   -10.5260    22.7780 hc         1 WDX       0.055200
     39 H18         17.0740    -8.7890    22.4950 hc         1 WDX       0.055200
     40 H19         15.8160    -9.1000    20.3850 h1         1 WDX       0.020700
     41 H20         15.9120   -10.8590    20.5750 h1         1 WDX       0.020700
     42 H21         23.2550    -5.9130    21.7360 hn         1 WDX       0.367000
     43 H22         13.9290    -9.9110    21.4100 ho         1 WDX       0.442000
@<TRIPOS>BOND
     1     1     2 ar  
     2     1     6 ar  
     3     1    22 1   
     4     2     7 ar  
     5     2    23 1   
     6     3     5 ar  
     7     3     6 ar  
     8     3    24 1   
     9     4     5 1   
    10     4     8 2   
    11     4    25 1   
    12     5     7 ar  
    13     6    15 1   
    14     7    18 1   
    15     8     9 1   
    16     8    18 1   
    17     9    19 1   
    18     9    20 2   
    19    10    12 1   
    20    10    14 1   
    21    10    26 1   
    22    10    27 1   
    23    11    13 1   
    24    11    14 1   
    25    11    28 1   
    26    11    29 1   
    27    12    19 1   
    28    12    30 1   
    29    12    31 1   
    30    13    19 1   
    31    13    32 1   
    32    13    33 1   
    33    14    16 1   
    34    14    34 1   
    35    15    35 1   
    36    15    36 1   
    37    15    37 1   
    38    16    17 1   
    39    16    38 1   
    40    16    39 1   
    41    17    21 1   
    42    17    40 1   
    43    17    41 1   
    44    18    42 1   
    45    21    43 1   
@<TRIPOS>SUBSTRUCTURE
     1 WDX         1 TEMP              0 ****  ****    0 ROOT
