@<TRIPOS>MOLECULE
WDY
   36    39     1     0     0
SMALL
No Charge or Current Charge


@<TRIPOS>ATOM
      1 N1         -13.6110     3.2670    -4.0370 na         1 WDY      -0.010200
      2 N3         -17.9610     0.8360   -11.8170 na         1 WDY      -0.083400
      3 C4         -15.5130     2.6320    -4.7810 cc         1 WDY       0.300500
      4 C5         -15.5110     2.4240    -3.3870 cc         1 WDY      -0.216000
      5 C6         -14.3040     2.8260    -2.9060 cd         1 WDY      -0.169000
      6 C7         -17.8430     1.7750    -5.2090 ca         1 WDY      -0.122000
      7 C8         -18.8990     1.4810    -6.0860 ca         1 WDY      -0.087000
      8 C10        -16.8530     3.1390   -11.6530 ca         1 WDY      -0.185600
      9 C13        -17.2660     3.0570   -14.4870 ca         1 WDY      -0.009000
     10 C15        -17.4890     2.0500   -12.2930 ca         1 WDY      -0.007200
     11 C          -16.6270     3.2370   -10.1600 c          1 WDY       0.623700
     12 O          -15.7120     3.9120    -9.7040 o          1 WDY      -0.567100
     13 C1         -17.5860     2.2960    -7.9680 ca         1 WDY      -0.032000
     14 C11        -16.3990     4.1910   -12.4920 ca         1 WDY      -0.010000
     15 C12        -16.6090     4.1510   -13.8920 ca         1 WDY      -0.162000
     16 C14        -17.6870     2.0260   -13.6410 ca         1 WDY      -0.242900
     17 C16        -18.3290     0.7710   -13.9360 cc         1 WDY       0.365800
     18 C2         -16.5220     2.5810    -7.0820 ca         1 WDY      -0.105000
     19 C3         -16.6360     2.3280    -5.6930 ca         1 WDY      -0.085500
     20 C9         -18.7690     1.7370    -7.4580 ca         1 WDY      -0.164000
     21 N2         -14.3680     3.1450    -5.2030 nd         1 WDY      -0.504800
     22 N4         -18.4950     0.0300   -12.8310 nd         1 WDY      -0.509100
     23 H1         -12.6630     3.6420    -4.0550 hn         1 WDY       0.374000
     24 H3         -16.3270     2.0160    -2.8030 ha         1 WDY       0.144000
     25 H4         -13.8920     2.8370    -1.9020 h4         1 WDY       0.153000
     26 H5         -17.9790     1.5630    -4.1530 ha         1 WDY       0.116000
     27 H6         -19.8210     1.0520    -5.6990 ha         1 WDY       0.114000
     28 H7         -17.4260     3.0110   -15.5630 ha         1 WDY       0.122000
     29 H9         -15.8930     5.0530   -12.0610 ha         1 WDY       0.135000
     30 H10        -16.2580     4.9720   -14.5130 ha         1 WDY       0.123000
     31 H11        -18.6690     0.3530   -14.8750 h4         1 WDY       0.052800
     32 H12        -15.5930     2.9900    -7.4650 ha         1 WDY       0.161000
     33 H13        -19.5970     1.5040    -8.1250 ha         1 WDY       0.109000
     34 N          -17.5190     2.5220    -9.3700 ns         1 WDY      -0.156000
     35 H2         -17.9000     0.4920   -10.8600 hn         1 WDY       0.383000
     36 H8         -18.2870     2.1150    -9.8850 hn         1 WDY       0.149000
@<TRIPOS>BOND
     1     1     5 1   
     2     1    21 1   
     3     1    23 1   
     4     2    10 1   
     5     2    22 1   
     6     2    35 1   
     7     3     4 1   
     8     3    19 1   
     9     3    21 2   
    10     4     5 2   
    11     4    24 1   
    12     5    25 1   
    13     6     7 ar  
    14     6    19 ar  
    15     6    26 1   
    16     7    20 ar  
    17     7    27 1   
    18     8    10 ar  
    19     8    11 1   
    20     8    14 ar  
    21     9    15 ar  
    22     9    16 ar  
    23     9    28 1   
    24    10    16 ar  
    25    11    12 2   
    26    11    34 1   
    27    13    18 ar  
    28    13    20 ar  
    29    13    34 1   
    30    14    15 ar  
    31    14    29 1   
    32    15    30 1   
    33    16    17 1   
    34    17    22 2   
    35    17    31 1   
    36    18    19 ar  
    37    18    32 1   
    38    20    33 1   
    39    34    36 1   
@<TRIPOS>SUBSTRUCTURE
     1 WDY         1 TEMP              0 ****  ****    0 ROOT
