@<TRIPOS>MOLECULE
WDY
   36    39     1     0     0
SMALL
abcg2


@<TRIPOS>ATOM
      1 N1         -13.6290     3.2120    -4.2090 na         1 WDY      -0.010200
      2 N3         -17.7830     0.7290   -11.8290 na         1 WDY      -0.083400
      3 C4         -15.5730     2.6040    -4.8310 cc         1 WDY       0.300500
      4 C5         -15.4790     2.3430    -3.4410 cc         1 WDY      -0.216000
      5 C6         -14.2130     2.7490    -3.0830 cd         1 WDY      -0.169000
      6 C7         -17.9330     1.9170    -5.2170 ca         1 WDY      -0.122000
      7 C8         -19.0020     1.6810    -6.0740 ca         1 WDY      -0.087000
      8 C10        -16.8620     3.0810   -11.5730 ca         1 WDY      -0.185600
      9 C13        -17.2580     3.1060   -14.4040 ca         1 WDY      -0.009000
     10 C15        -17.3940     1.9650   -12.2490 ca         1 WDY      -0.007200
     11 C          -16.6330     3.1420   -10.1000 c          1 WDY       0.623700
     12 O          -15.6770     3.7410    -9.6200 o          1 WDY      -0.567100
     13 C1         -17.6510     2.3340    -7.9600 ca         1 WDY      -0.032000
     14 C11        -16.5200     4.1740   -12.3560 ca         1 WDY      -0.010000
     15 C12        -16.7210     4.1960   -13.7460 ca         1 WDY      -0.162000
     16 C14        -17.5900     1.9730   -13.6520 ca         1 WDY      -0.242900
     17 C16        -18.1030     0.6770   -13.9480 cc         1 WDY       0.365800
     18 C2         -16.5740     2.5650    -7.1060 ca         1 WDY      -0.105000
     19 C3         -16.7100     2.3590    -5.7290 ca         1 WDY      -0.085500
     20 C9         -18.8700     1.8870    -7.4380 ca         1 WDY      -0.164000
     21 N2         -14.4310     3.1360    -5.2830 nd         1 WDY      -0.504800
     22 N4         -18.2030    -0.0530   -12.8560 nd         1 WDY      -0.509100
     23 H1         -12.6980     3.5860    -4.3060 hn         1 WDY       0.374000
     24 H3         -16.2240     1.9150    -2.7920 ha         1 WDY       0.144000
     25 H4         -13.6960     2.7420    -2.1380 h4         1 WDY       0.153000
     26 H5         -18.0560     1.7610    -4.1540 ha         1 WDY       0.116000
     27 H6         -19.9470     1.3370    -5.6750 ha         1 WDY       0.114000
     28 H7         -17.4120     3.1220   -15.4760 ha         1 WDY       0.122000
     29 H9         -16.0970     5.0410   -11.8650 ha         1 WDY       0.135000
     30 H10        -16.4500     5.0850   -14.3020 ha         1 WDY       0.123000
     31 H11        -18.3860     0.2700   -14.9060 h4         1 WDY       0.052800
     32 H12        -15.6340     2.9020    -7.5050 ha         1 WDY       0.161000
     33 H13        -19.7030     1.7020    -8.1060 ha         1 WDY       0.109000
     34 N          -17.5780     2.4940    -9.3560 ns         1 WDY      -0.156000
     35 H2         -17.7070     0.3260   -10.9090 hn         1 WDY       0.383000
     36 H8         -18.4130     2.2130    -9.8490 hn         1 WDY       0.149000
@<TRIPOS>BOND
     1     1     5 1   
     2     1    21 1   
     3     1    23 1   
     4     2    10 1   
     5     2    22 1   
     6     2    35 1   
     7     3     4 1   
     8     3    19 1   
     9     3    21 2   
    10     4     5 2   
    11     4    24 1   
    12     5    25 1   
    13     6     7 ar  
    14     6    19 ar  
    15     6    26 1   
    16     7    20 ar  
    17     7    27 1   
    18     8    10 ar  
    19     8    11 1   
    20     8    14 ar  
    21     9    15 ar  
    22     9    16 ar  
    23     9    28 1   
    24    10    16 ar  
    25    11    12 2   
    26    11    34 1   
    27    13    18 ar  
    28    13    20 ar  
    29    13    34 1   
    30    14    15 ar  
    31    14    29 1   
    32    15    30 1   
    33    16    17 1   
    34    17    22 2   
    35    17    31 1   
    36    18    19 ar  
    37    18    32 1   
    38    20    33 1   
    39    34    36 1   
@<TRIPOS>SUBSTRUCTURE
     1 WDY         1 TEMP              0 ****  ****    0 ROOT
