@<TRIPOS>MOLECULE
WDZ
   29    30     1     0     0
SMALL
No Charge or Current Charge


@<TRIPOS>ATOM
      1 N1          -0.8020    14.7890   -38.1290 nc         1 WDZ      -0.388000
      2 C7          -1.9540    11.5760   -35.2950 c5         1 WDZ      -0.079900
      3 C8          -2.2910    12.7370   -36.2780 c5         1 WDZ      -0.070400
      4 N2          -0.8720    16.0370   -38.7000 nc         1 WDZ      -0.034000
      5 O1          -4.1540    15.8570   -35.7310 o          1 WDZ      -0.453000
      6 C1          -3.4050    16.5570   -35.0620 c          1 WDZ       0.571100
      7 C5           0.0190    12.9730   -35.8100 c5         1 WDZ      -0.070400
      8 C6          -0.4400    11.7660   -34.9440 c5         1 WDZ      -0.079900
      9 N3          -1.2850    16.9440   -37.8570 nd         1 WDZ      -0.195800
     10 C4          -1.2760    13.8270   -35.8430 c5         1 WDZ      -0.107000
     11 C3          -1.1920    14.9460   -36.8770 cd         1 WDZ       0.429800
     12 O           -3.7210    17.0590   -33.8240 os         1 WDZ      -0.449100
     13 C           -5.0220    16.7580   -33.2820 c3         1 WDZ       0.154900
     14 N           -1.4960    16.2770   -36.6960 na         1 WDZ      -0.096700
     15 H1          -2.1520    10.5980   -35.7480 hc         1 WDZ       0.048700
     16 H2          -2.5700    11.6350   -34.3900 hc         1 WDZ       0.048700
     17 H3          -3.3320    13.0700   -36.1880 hc         1 WDZ       0.057450
     18 H4          -2.1400    12.4250   -37.3190 hc         1 WDZ       0.057450
     19 H5           0.8670    13.5070   -35.3650 hc         1 WDZ       0.057450
     20 H6           0.3310    12.6430   -36.8090 hc         1 WDZ       0.057450
     21 H7           0.1500    10.8670   -35.1540 hc         1 WDZ       0.048700
     22 H8          -0.3160    11.9820   -33.8760 hc         1 WDZ       0.048700
     23 H9          -1.5150    14.2140   -34.8460 hc         1 WDZ       0.051700
     24 H10         -1.3140    16.7260   -34.6410 h1         1 WDZ       0.101200
     25 H11         -1.9760    18.0410   -35.6260 h1         1 WDZ       0.101200
     26 H12         -5.1400    17.2200   -32.2940 h1         1 WDZ       0.056033
     27 H13         -5.8170    17.1430   -33.9340 h1         1 WDZ       0.056033
     28 H14         -5.1590    15.6750   -33.1690 h1         1 WDZ       0.056033
     29 C2          -1.9840    16.9550   -35.4770 c3         1 WDZ       0.020600
@<TRIPOS>BOND
     1     1     4 1   
     2     1    11 2   
     3     2     3 1   
     4     2     8 1   
     5     2    15 1   
     6     2    16 1   
     7     3    10 1   
     8     3    17 1   
     9     3    18 1   
    10     4     9 2   
    11     5     6 2   
    12     6    12 1   
    13     6    29 1   
    14     7     8 1   
    15     7    10 1   
    16     7    19 1   
    17     7    20 1   
    18     8    21 1   
    19     8    22 1   
    20     9    14 1   
    21    10    11 1   
    22    10    23 1   
    23    11    14 1   
    24    12    13 1   
    25    13    26 1   
    26    13    27 1   
    27    13    28 1   
    28    14    29 1   
    29    24    29 1   
    30    25    29 1   
@<TRIPOS>SUBSTRUCTURE
     1 WDZ         1 TEMP              0 ****  ****    0 ROOT
