@<TRIPOS>MOLECULE
WDZ
   29    30     1     0     0
SMALL
abcg2


@<TRIPOS>ATOM
      1 N1          -0.6330    14.8280   -37.9070 nc         1 WDZ      -0.388000
      2 C7          -1.7100    11.6930   -34.9190 c5         1 WDZ      -0.079900
      3 C8          -2.1820    13.0670   -35.3980 c5         1 WDZ      -0.070400
      4 N2          -0.9520    16.0150   -38.4750 nc         1 WDZ      -0.034000
      5 O1          -4.2070    15.8870   -36.0210 o          1 WDZ      -0.453000
      6 C1          -3.5750    16.5090   -35.2040 c          1 WDZ       0.571100
      7 C5           0.2300    12.7880   -35.8880 c5         1 WDZ      -0.070400
      8 C6          -0.4830    11.4250   -35.7950 c5         1 WDZ      -0.079900
      9 N3          -1.4650    16.8150   -37.6110 nd         1 WDZ      -0.195800
     10 C4          -0.8600    13.8610   -35.5910 c5         1 WDZ      -0.107000
     11 C3          -0.9750    14.9150   -36.6320 cd         1 WDZ       0.429800
     12 O           -4.0760    17.0890   -34.1200 os         1 WDZ      -0.449100
     13 C           -5.5020    16.9530   -33.9120 c3         1 WDZ       0.154900
     14 N           -1.4860    16.1490   -36.4400 na         1 WDZ      -0.096700
     15 H1          -2.4830    10.9290   -35.0150 hc         1 WDZ       0.048700
     16 H2          -1.4180    11.7460   -33.8660 hc         1 WDZ       0.048700
     17 H3          -2.8610    13.5650   -34.7070 hc         1 WDZ       0.057450
     18 H4          -2.6940    12.9670   -36.3580 hc         1 WDZ       0.057450
     19 H5           1.0160    12.8650   -35.1360 hc         1 WDZ       0.057450
     20 H6           0.6930    12.9410   -36.8600 hc         1 WDZ       0.057450
     21 H7          -0.8090    11.1060   -36.7880 hc         1 WDZ       0.048700
     22 H8           0.1660    10.6450   -35.3960 hc         1 WDZ       0.048700
     23 H9          -0.6190    14.3530   -34.6470 hc         1 WDZ       0.051700
     24 H10         -1.6030    16.3370   -34.3730 h1         1 WDZ       0.101200
     25 H11         -1.8800    17.8190   -35.2860 h1         1 WDZ       0.101200
     26 H12         -5.7060    17.4740   -32.9820 h1         1 WDZ       0.056033
     27 H13         -6.0420    17.4130   -34.7380 h1         1 WDZ       0.056033
     28 H14         -5.7670    15.9010   -33.8310 h1         1 WDZ       0.056033
     29 C2          -2.0730    16.7470   -35.2660 c3         1 WDZ       0.020600
@<TRIPOS>BOND
     1     1     4 1   
     2     1    11 2   
     3     2     3 1   
     4     2     8 1   
     5     2    15 1   
     6     2    16 1   
     7     3    10 1   
     8     3    17 1   
     9     3    18 1   
    10     4     9 2   
    11     5     6 2   
    12     6    12 1   
    13     6    29 1   
    14     7     8 1   
    15     7    10 1   
    16     7    19 1   
    17     7    20 1   
    18     8    21 1   
    19     8    22 1   
    20     9    14 1   
    21    10    11 1   
    22    10    23 1   
    23    11    14 1   
    24    12    13 1   
    25    13    26 1   
    26    13    27 1   
    27    13    28 1   
    28    14    29 1   
    29    24    29 1   
    30    25    29 1   
@<TRIPOS>SUBSTRUCTURE
     1 WDZ         1 TEMP              0 ****  ****    0 ROOT
