@<TRIPOS>MOLECULE
WE0
   72    75     1     0     0
SMALL
No Charge or Current Charge


@<TRIPOS>ATOM
      1 C5          -1.2150    -2.6870    -2.0490 c6         1 WE0      -0.090900
      2 C6          -3.2820    -1.1880    -1.7680 c6         1 WE0       0.168000
      3 C7          -2.4390    -0.2620    -0.8100 c6         1 WE0       0.026700
      4 C8          -2.2980    -1.8390    -2.7920 c6         1 WE0      -0.103400
      5 C13          0.7980    -1.3140     2.4310 c3         1 WE0      -0.066700
      6 C20          5.9870    -0.7390    -0.2180 ca         1 WE0      -0.038000
      7 C21          5.7820     2.0470     0.0580 ca         1 WE0      -0.108000
      8 C22          4.6500     1.2380     0.2580 ca         1 WE0      -0.083000
      9 C24          7.1200     0.0710    -0.4180 ca         1 WE0      -0.049000
     10 C26          9.4880     0.3040    -0.9550 ca         1 WE0      -0.116000
     11 C28          8.1510     2.2820    -0.4790 ca         1 WE0      -0.103000
     12 C1          -2.7710    -3.0370    -0.0990 c6         1 WE0      -0.090900
     13 C2          -1.3620    -2.5060    -0.5140 c6         1 WE0       0.119700
     14 C3          -3.8990    -2.3300    -0.9130 c6         1 WE0      -0.103400
     15 N4          -1.2750    -1.0400    -0.2300 n          1 WE0      -0.382800
     16 O9          -4.2980    -0.4800    -2.4800 oh         1 WE0      -0.638000
     17 C11          1.0610    -1.1610     0.8930 c3         1 WE0       0.037700
     18 O12          0.0590     0.8180    -0.0930 o          1 WE0      -0.583100
     19 N14          2.3500    -0.4670     0.6460 ns         1 WE0      -0.483900
     20 C16          4.7380    -0.1700     0.1210 ca         1 WE0      -0.144600
     21 O17          3.6250    -2.2960     0.2170 o          1 WE0      -0.621100
     22 C23          7.0180     1.4710    -0.2800 ca         1 WE0      -0.022000
     23 C25          8.3590    -0.5090    -0.7570 ca         1 WE0      -0.086000
     24 C27          9.3840     1.6990    -0.8170 ca         1 WE0      -0.103000
     25 C29         -3.2580     0.5320     0.2620 c          1 WE0       0.596100
     26 O30         -2.7620     0.9040     1.3210 o          1 WE0      -0.642100
     27 N31         -4.5590     0.8510    -0.0490 ns         1 WE0      -0.447900
     28 C32         -5.5030     1.5300     0.8440 c3         1 WE0       0.129700
     29 C33         -6.5390     2.3570     0.0430 c3         1 WE0      -0.219400
     30 C34         -5.8420     3.5060    -0.6940 c          1 WE0       0.717000
     31 O35         -5.6580     4.5470    -0.0830 o          1 WE0      -0.733000
     32 C36         -6.1580     0.5270     1.8400 c3         1 WE0       0.124600
     33 O37         -5.4810     3.3240    -1.8460 o          1 WE0      -0.733000
     34 O38         -6.9080    -0.4920     1.1560 oh         1 WE0      -0.662000
     35 H1          -1.3160    -3.7490    -2.3130 hc         1 WE0       0.053950
     36 H2          -0.2090    -2.3810    -2.3700 hc         1 WE0       0.053950
     37 H3          -2.0320     0.5310    -1.4500 h1         1 WE0       0.111700
     38 H4          -1.8100    -1.0560    -3.3900 hc         1 WE0       0.051450
     39 H5          -2.8420    -2.4760    -3.5030 hc         1 WE0       0.051450
     40 H6           0.7300    -0.2990     2.8450 hc         1 WE0       0.069700
     41 H9           3.7150     1.7250     0.5200 ha         1 WE0       0.117000
     42 H10         10.4430    -0.1460    -1.2170 ha         1 WE0       0.110000
     43 H11          8.0780     3.3620    -0.3740 ha         1 WE0       0.112000
     44 H12         -2.8230    -4.1240    -0.2500 hc         1 WE0       0.053950
     45 H13         -2.9250    -2.8690     0.9760 hc         1 WE0       0.053950
     46 H14         -0.5940    -3.0830     0.0130 h1         1 WE0       0.061700
     47 H15         -4.6680    -1.9430    -0.2310 hc         1 WE0       0.051450
     48 H16         -4.4040    -3.0590    -1.5620 hc         1 WE0       0.051450
     49 H17         -4.6160    -1.0790    -3.1920 ho         1 WE0       0.447000
     50 H18          1.1350    -2.1570     0.4470 h1         1 WE0       0.080700
     51 H19          2.3510     0.5440     0.6730 hn         1 WE0       0.330500
     52 H26          8.4480    -1.5880    -0.8660 ha         1 WE0       0.116000
     53 H27         10.2590     2.3270    -0.9710 ha         1 WE0       0.109000
     54 H28         -4.8900     0.5240    -0.9520 hn         1 WE0       0.335500
     55 H29         -4.9320     2.2430     1.4550 h1         1 WE0       0.099700
     56 H30         -7.0190     1.6710    -0.6660 hc         1 WE0       0.030200
     57 H31         -7.2270     2.7650     0.7940 hc         1 WE0       0.030200
     58 H32         -5.3680     0.0640     2.4470 h1         1 WE0       0.017200
     59 H33         -6.8130     1.0810     2.5250 h1         1 WE0       0.017200
     60 H35         -7.3040    -1.0690     1.8460 ho         1 WE0       0.415000
     61 C10         -0.0750    -0.3790     0.1440 c          1 WE0       0.595100
     62 C18         -0.5380    -2.0170     2.7760 c3         1 WE0      -0.092100
     63 C15          3.5430    -1.0800     0.3290 c          1 WE0       0.617700
     64 H7           6.0800    -1.8180    -0.3280 ha         1 WE0       0.135000
     65 H20         -0.5720    -3.0280     2.3540 hc         1 WE0       0.037700
     66 H21         -0.6580    -2.1030     3.8630 hc         1 WE0       0.037700
     67 H22         -1.3970    -1.4480     2.4060 hc         1 WE0       0.037700
     68 C19          1.9640    -2.0180     3.1710 c3         1 WE0      -0.092100
     69 H8           5.6940     3.1260     0.1680 ha         1 WE0       0.114000
     70 H23          2.1400    -3.0190     2.7580 hc         1 WE0       0.037700
     71 H24          2.8940    -1.4430     3.0930 hc         1 WE0       0.037700
     72 H25          1.7390    -2.1250     4.2390 hc         1 WE0       0.037700
@<TRIPOS>BOND
     1     1     4 1   
     2     1    13 1   
     3     1    35 1   
     4     1    36 1   
     5     2     3 1   
     6     2     4 1   
     7     2    14 1   
     8     2    16 1   
     9     3    15 1   
    10     3    25 1   
    11     3    37 1   
    12     4    38 1   
    13     4    39 1   
    14     5    17 1   
    15     5    40 1   
    16     5    62 1   
    17     5    68 1   
    18     6     9 ar  
    19     6    20 ar  
    20     6    64 1   
    21     7     8 ar  
    22     7    22 ar  
    23     7    69 1   
    24     8    20 ar  
    25     8    41 1   
    26     9    22 ar  
    27     9    23 ar  
    28    10    23 ar  
    29    10    24 ar  
    30    10    42 1   
    31    11    22 ar  
    32    11    24 ar  
    33    11    43 1   
    34    12    13 1   
    35    12    14 1   
    36    12    44 1   
    37    12    45 1   
    38    13    15 1   
    39    13    46 1   
    40    14    47 1   
    41    14    48 1   
    42    15    61 1   
    43    16    49 1   
    44    17    19 1   
    45    17    50 1   
    46    17    61 1   
    47    18    61 2   
    48    19    51 1   
    49    19    63 1   
    50    20    63 1   
    51    21    63 2   
    52    23    52 1   
    53    24    53 1   
    54    25    26 2   
    55    25    27 1   
    56    27    28 1   
    57    27    54 1   
    58    28    29 1   
    59    28    32 1   
    60    28    55 1   
    61    29    30 1   
    62    29    56 1   
    63    29    57 1   
    64    30    31 1   
    65    30    33 1   
    66    32    34 1   
    67    32    58 1   
    68    32    59 1   
    69    34    60 1   
    70    62    65 1   
    71    62    66 1   
    72    62    67 1   
    73    68    70 1   
    74    68    71 1   
    75    68    72 1   
@<TRIPOS>SUBSTRUCTURE
     1 WE0         1 TEMP              0 ****  ****    0 ROOT
