@<TRIPOS>MOLECULE
WE0
   72    75     1     0     0
SMALL
bcc


@<TRIPOS>ATOM
      1 C5          -0.7010    -2.8140    -1.4150 c6         1 WE0      -0.090900
      2 C6          -2.6150    -1.2090    -1.7140 c6         1 WE0       0.144800
      3 C7          -2.0900    -0.2770    -0.5960 c6         1 WE0       0.026700
      4 C8          -1.4020    -1.8550    -2.3940 c6         1 WE0      -0.103400
      5 C13          0.6970    -1.0900     3.0850 c3         1 WE0      -0.066700
      6 C20          5.0060    -0.3930    -1.0410 ca         1 WE0      -0.056000
      7 C21          6.0940     1.1330     1.0210 ca         1 WE0      -0.126000
      8 C22          4.9130     0.4730     1.2040 ca         1 WE0      -0.101000
      9 C24          6.2210     0.2910    -1.2630 ca         1 WE0      -0.049000
     10 C26          8.0780     0.8880    -2.6890 ca         1 WE0      -0.134000
     11 C28          7.9960     1.7500    -0.4370 ca         1 WE0      -0.121000
     12 C1          -2.6770    -2.8970     0.1010 c6         1 WE0      -0.090900
     13 C2          -1.2110    -2.4850    -0.0170 c6         1 WE0       0.119700
     14 C3          -3.4690    -2.3110    -1.0830 c6         1 WE0      -0.103400
     15 N4          -1.1090    -1.0340     0.1580 n          1 WE0      -0.449800
     16 O9          -3.3290    -0.4020    -2.6260 oh         1 WE0      -0.575800
     17 C11          0.9430    -1.1440     1.5650 c3         1 WE0       0.037700
     18 O12         -0.0960     0.8580     0.8270 o          1 WE0      -0.583100
     19 N14          2.2190    -0.5500     1.2430 ns         1 WE0      -0.550900
     20 C16          4.3480    -0.2980     0.1590 ca         1 WE0      -0.144600
     21 O17          2.8220    -2.0430    -0.3460 o          1 WE0      -0.621100
     22 C23          6.7770     1.0690    -0.2150 ca         1 WE0      -0.022000
     23 C25          6.9000     0.2170    -2.5020 ca         1 WE0      -0.104000
     24 C27          8.6310     1.6610    -1.6460 ca         1 WE0      -0.121000
     25 C29         -3.1800     0.2810     0.3410 c          1 WE0       0.663100
     26 O30         -3.0830     0.1990     1.5560 o          1 WE0      -0.642100
     27 N31         -4.2000     0.8830    -0.2790 ns         1 WE0      -0.514900
     28 C32         -5.3700     1.3930     0.4150 c3         1 WE0       0.129700
     29 C33         -6.0660     2.4090    -0.4780 c3         1 WE0      -0.219400
     30 C34         -5.2480     3.6890    -0.7330 c          1 WE0       0.927600
     31 O35         -4.5360     4.1030     0.2030 o          1 WE0      -0.838300
     32 C36         -6.2910     0.2650     0.8580 c3         1 WE0       0.101400
     33 O37         -5.3980     4.2320    -1.8470 o          1 WE0      -0.838300
     34 O38         -6.7470    -0.4460    -0.2720 oh         1 WE0      -0.599800
     35 H1          -0.9280    -3.8570    -1.6480 hc         1 WE0       0.053950
     36 H2           0.3830    -2.7010    -1.4600 hc         1 WE0       0.053950
     37 H3          -1.5990     0.5770    -1.0750 h1         1 WE0       0.111700
     38 H4          -0.7230    -1.0690    -2.7350 hc         1 WE0       0.051450
     39 H5          -1.7410    -2.3890    -3.2850 hc         1 WE0       0.051450
     40 H6           0.6900    -0.0340     3.3800 hc         1 WE0       0.069700
     41 H9           4.4310     0.5220     2.1730 ha         1 WE0       0.135000
     42 H10          8.5910     0.8310    -3.6410 ha         1 WE0       0.128000
     43 H11          8.4210     2.3450     0.3630 ha         1 WE0       0.130000
     44 H12         -2.7340    -3.9860     0.1070 hc         1 WE0       0.053950
     45 H13         -3.0800    -2.5550     1.0550 hc         1 WE0       0.053950
     46 H14         -0.6380    -2.9950     0.7510 h1         1 WE0       0.061700
     47 H15         -4.4360    -1.9170    -0.7640 hc         1 WE0       0.051450
     48 H16         -3.6700    -3.0780    -1.8350 hc         1 WE0       0.051450
     49 H17         -3.8350    -0.9740    -3.2130 ho         1 WE0       0.408000
     50 H18          0.9940    -2.1870     1.2570 h1         1 WE0       0.080700
     51 H19          2.3990     0.3660     1.6230 hn         1 WE0       0.330500
     52 H26          6.4730    -0.3780    -3.3000 ha         1 WE0       0.134000
     53 H27          9.5630     2.1860    -1.8080 ha         1 WE0       0.127000
     54 H28         -4.2570     0.7730    -1.2820 hn         1 WE0       0.335500
     55 H29         -5.0340     1.9060     1.3180 h1         1 WE0       0.099700
     56 H30         -6.3540     1.9490    -1.4270 hc         1 WE0       0.030200
     57 H31         -7.0020     2.7030     0.0100 hc         1 WE0       0.030200
     58 H32         -5.7510    -0.3920     1.5500 h1         1 WE0       0.017200
     59 H33         -7.1240     0.7070     1.4230 h1         1 WE0       0.017200
     60 H35         -7.1550    -1.2610     0.0320 ho         1 WE0       0.376000
     61 C10         -0.1440    -0.3650     0.8130 c          1 WE0       0.662100
     62 C18         -0.6500    -1.7010     3.4580 c3         1 WE0      -0.092100
     63 C15          3.0640    -1.0460     0.3220 c          1 WE0       0.684700
     64 H7           4.5890    -0.9910    -1.8430 ha         1 WE0       0.153000
     65 H20         -0.6800    -2.7640     3.2030 hc         1 WE0       0.037700
     66 H21         -0.8080    -1.6230     4.5340 hc         1 WE0       0.037700
     67 H22         -1.4880    -1.2130     2.9630 hc         1 WE0       0.037700
     68 C19          1.8190    -1.7960     3.8390 c3         1 WE0      -0.092100
     69 H8           6.5240     1.7100     1.8310 ha         1 WE0       0.132000
     70 H23          1.8530    -2.8580     3.5820 hc         1 WE0       0.037700
     71 H24          2.7990    -1.3690     3.6250 hc         1 WE0       0.037700
     72 H25          1.6560    -1.7220     4.9150 hc         1 WE0       0.037700
@<TRIPOS>BOND
     1     1     4 1   
     2     1    13 1   
     3     1    35 1   
     4     1    36 1   
     5     2     3 1   
     6     2     4 1   
     7     2    14 1   
     8     2    16 1   
     9     3    15 1   
    10     3    25 1   
    11     3    37 1   
    12     4    38 1   
    13     4    39 1   
    14     5    17 1   
    15     5    40 1   
    16     5    62 1   
    17     5    68 1   
    18     6     9 ar  
    19     6    20 ar  
    20     6    64 1   
    21     7     8 ar  
    22     7    22 ar  
    23     7    69 1   
    24     8    20 ar  
    25     8    41 1   
    26     9    22 ar  
    27     9    23 ar  
    28    10    23 ar  
    29    10    24 ar  
    30    10    42 1   
    31    11    22 ar  
    32    11    24 ar  
    33    11    43 1   
    34    12    13 1   
    35    12    14 1   
    36    12    44 1   
    37    12    45 1   
    38    13    15 1   
    39    13    46 1   
    40    14    47 1   
    41    14    48 1   
    42    15    61 1   
    43    16    49 1   
    44    17    19 1   
    45    17    50 1   
    46    17    61 1   
    47    18    61 2   
    48    19    51 1   
    49    19    63 1   
    50    20    63 1   
    51    21    63 2   
    52    23    52 1   
    53    24    53 1   
    54    25    26 2   
    55    25    27 1   
    56    27    28 1   
    57    27    54 1   
    58    28    29 1   
    59    28    32 1   
    60    28    55 1   
    61    29    30 1   
    62    29    56 1   
    63    29    57 1   
    64    30    31 1   
    65    30    33 1   
    66    32    34 1   
    67    32    58 1   
    68    32    59 1   
    69    34    60 1   
    70    62    65 1   
    71    62    66 1   
    72    62    67 1   
    73    68    70 1   
    74    68    71 1   
    75    68    72 1   
@<TRIPOS>SUBSTRUCTURE
     1 WE0         1 TEMP              0 ****  ****    0 ROOT
