@<TRIPOS>MOLECULE
WE1
   56    58     1     0     0
SMALL
abcg2


@<TRIPOS>ATOM
      1 N1         -18.9490     2.7640   -12.8480 nc         1 WE1      -0.712000
      2 N3         -18.5720    -0.0070    -2.5180 ns         1 WE1      -0.522900
      3 C4         -17.8450     2.8330    -8.2270 ca         1 WE1      -0.188600
      4 C5         -18.3530     1.5510    -8.0210 ca         1 WE1      -0.031000
      5 C6         -18.4440     0.9970    -6.7570 ca         1 WE1      -0.170500
      6 C7         -18.0270     1.7290    -5.6400 ca         1 WE1       0.033000
      7 C8         -18.8020     0.2120    -3.8320 c          1 WE1       0.664100
      8 C10        -20.4070    -0.3590    -0.8250 c3         1 WE1       0.219200
      9 C15        -19.4680     2.7400     1.0970 c6         1 WE1       0.151600
     10 C17        -19.0970    -0.1100     1.2740 c6         1 WE1       0.161300
     11 N          -18.3600     2.8950   -10.6010 ns         1 WE1      -0.465400
     12 C          -17.7070     3.4730    -9.5520 c          1 WE1       0.627700
     13 O          -17.0470     4.4850    -9.7250 o          1 WE1      -0.584100
     14 C1         -18.3100     3.3600   -11.8920 cd         1 WE1       0.534300
     15 C11        -21.4200     0.4050    -1.6750 c3         1 WE1      -0.086100
     16 C12        -21.1300    -1.5290    -0.1180 c3         1 WE1      -0.076400
     17 C14        -19.3410     1.8230    -0.1160 c6         1 WE1       0.161300
     18 C16        -18.3610     0.9430     2.1010 c6         1 WE1       0.151600
     19 C18        -17.5030     3.0130    -5.8450 ca         1 WE1      -0.170500
     20 C19        -17.4100     3.5480    -7.1100 ca         1 WE1      -0.031000
     21 C2         -18.7460     3.4100   -14.0350 cc         1 WE1       0.302900
     22 C3         -17.9490     4.5020   -13.9820 cd         1 WE1      -0.318000
     23 C9         -19.3010    -0.9640    -1.7210 c3         1 WE1       0.083000
     24 N2         -18.0560     1.2610    -4.3400 ns         1 WE1      -0.167000
     25 N4         -19.8870     0.5260     0.2290 n3         1 WE1      -0.775600
     26 O1         -19.1690     2.0740     2.3100 os         1 WE1      -0.438000
     27 O2         -19.5820    -0.4390    -4.5080 o          1 WE1      -0.613100
     28 S          -17.4100     4.7610   -12.3660 ss         1 WE1       0.058600
     29 H1         -17.8410     0.5090    -2.0580 hn         1 WE1       0.308500
     30 H2         -18.6710     0.9280    -8.8480 ha         1 WE1       0.126500
     31 H3         -18.8290    -0.0030    -6.6530 ha         1 WE1       0.133000
     32 H4         -22.3580    -3.2710    -0.4050 hc         1 WE1       0.036700
     33 H5         -22.8630    -1.9140    -1.3930 hc         1 WE1       0.036700
     34 H6         -21.4390    -2.8490    -1.8370 hc         1 WE1       0.036700
     35 H7         -18.8150     3.6120     0.9610 h1         1 WE1       0.045200
     36 H8         -20.4960     3.1060     1.1770 h1         1 WE1       0.045200
     37 H9         -19.7520    -0.6870     1.9320 h1         1 WE1       0.032200
     38 H10        -18.3420    -0.8120     0.8880 h1         1 WE1       0.032200
     39 H11        -18.9560     2.0910   -10.4660 hn         1 WE1       0.342500
     40 H12        -22.2240     0.7930    -1.0480 hc         1 WE1       0.044700
     41 H13        -20.9820     1.2430    -2.2150 hc         1 WE1       0.044700
     42 H14        -21.8620    -0.2470    -2.4270 hc         1 WE1       0.044700
     43 H15        -21.7550    -1.0990     0.6690 hc         1 WE1       0.048200
     44 H16        -20.3910    -2.1570     0.3870 hc         1 WE1       0.048200
     45 H17        -18.2920     1.7890    -0.4460 h1         1 WE1       0.032200
     46 H18        -19.8980     2.2770    -0.9330 h1         1 WE1       0.032200
     47 H19        -18.1140     0.5280     3.0800 h1         1 WE1       0.045200
     48 H20        -17.4110     1.2160     1.6250 h1         1 WE1       0.045200
     49 H21        -17.1680     3.5970    -4.9960 ha         1 WE1       0.133000
     50 H22        -17.0020     4.5430    -7.2290 ha         1 WE1       0.126500
     51 H23        -19.2170     3.0300   -14.9300 h4         1 WE1       0.038100
     52 H24        -17.6530     5.1570   -14.7860 h4         1 WE1       0.158000
     53 H25        -19.7360    -1.7040    -2.3910 h1         1 WE1       0.063700
     54 H26        -18.5810    -1.4990    -1.0990 h1         1 WE1       0.063700
     55 H27        -17.5790     1.8490    -3.6710 hn         1 WE1       0.146000
     56 C13        -21.9910    -2.4310    -0.9950 c3         1 WE1      -0.091100
@<TRIPOS>BOND
     1     1    14 2   
     2     1    21 1   
     3     2     7 1   
     4     2    23 1   
     5     2    29 1   
     6     3     4 ar  
     7     3    12 1   
     8     3    20 ar  
     9     4     5 ar  
    10     4    30 1   
    11     5     6 ar  
    12     5    31 1   
    13     6    19 ar  
    14     6    24 1   
    15     7    24 1   
    16     7    27 2   
    17     8    15 1   
    18     8    16 1   
    19     8    23 1   
    20     8    25 1   
    21     9    17 1   
    22     9    26 1   
    23     9    35 1   
    24     9    36 1   
    25    10    18 1   
    26    10    25 1   
    27    10    37 1   
    28    10    38 1   
    29    11    12 1   
    30    11    14 1   
    31    11    39 1   
    32    12    13 2   
    33    14    28 1   
    34    15    40 1   
    35    15    41 1   
    36    15    42 1   
    37    16    43 1   
    38    16    44 1   
    39    16    56 1   
    40    17    25 1   
    41    17    45 1   
    42    17    46 1   
    43    18    26 1   
    44    18    47 1   
    45    18    48 1   
    46    19    20 ar  
    47    19    49 1   
    48    20    50 1   
    49    21    22 2   
    50    21    51 1   
    51    22    28 1   
    52    22    52 1   
    53    23    53 1   
    54    23    54 1   
    55    24    55 1   
    56    32    56 1   
    57    33    56 1   
    58    34    56 1   
@<TRIPOS>SUBSTRUCTURE
     1 WE1         1 TEMP              0 ****  ****    0 ROOT
