@<TRIPOS>MOLECULE
WE1
   56    58     1     0     0
SMALL
No Charge or Current Charge


@<TRIPOS>ATOM
      1 N1           0.0000     0.0000     0.0000 nc         1 WE1      -0.712000
      2 N3           0.0000     0.0000     0.0000 ns         1 WE1      -0.522900
      3 C4           0.0000     0.0000     0.0000 ca         1 WE1      -0.188600
      4 C5           0.0000     0.0000     0.0000 ca         1 WE1      -0.031000
      5 C6           0.0000     0.0000     0.0000 ca         1 WE1      -0.170500
      6 C7           0.0000     0.0000     0.0000 ca         1 WE1       0.033000
      7 C8           0.0000     0.0000     0.0000 c          1 WE1       0.664100
      8 C10          0.0000     0.0000     0.0000 c3         1 WE1       0.219200
      9 C15          0.0000     0.0000     0.0000 c6         1 WE1       0.151600
     10 C17          0.0000     0.0000     0.0000 c6         1 WE1       0.161300
     11 N            0.0000     0.0000     0.0000 ns         1 WE1      -0.465400
     12 C            0.0000     0.0000     0.0000 c          1 WE1       0.627700
     13 O            0.0000     0.0000     0.0000 o          1 WE1      -0.584100
     14 C1           0.0000     0.0000     0.0000 cd         1 WE1       0.534300
     15 C11          0.0000     0.0000     0.0000 c3         1 WE1      -0.086100
     16 C12          0.0000     0.0000     0.0000 c3         1 WE1      -0.076400
     17 C14          0.0000     0.0000     0.0000 c6         1 WE1       0.161300
     18 C16          0.0000     0.0000     0.0000 c6         1 WE1       0.151600
     19 C18          0.0000     0.0000     0.0000 ca         1 WE1      -0.170500
     20 C19          0.0000     0.0000     0.0000 ca         1 WE1      -0.031000
     21 C2           0.0000     0.0000     0.0000 cc         1 WE1       0.302900
     22 C3           0.0000     0.0000     0.0000 cd         1 WE1      -0.318000
     23 C9           0.0000     0.0000     0.0000 c3         1 WE1       0.083000
     24 N2           0.0000     0.0000     0.0000 ns         1 WE1      -0.167000
     25 N4           0.0000     0.0000     0.0000 n3         1 WE1      -0.775600
     26 O1           0.0000     0.0000     0.0000 os         1 WE1      -0.438000
     27 O2           0.0000     0.0000     0.0000 o          1 WE1      -0.613100
     28 S            0.0000     0.0000     0.0000 ss         1 WE1       0.058600
     29 H1           0.0000     0.0000     0.0000 hn         1 WE1       0.308500
     30 H2           0.0000     0.0000     0.0000 ha         1 WE1       0.126500
     31 H3           0.0000     0.0000     0.0000 ha         1 WE1       0.133000
     32 H4           0.0000     0.0000     0.0000 hc         1 WE1       0.036700
     33 H5           0.0000     0.0000     0.0000 hc         1 WE1       0.036700
     34 H6           0.0000     0.0000     0.0000 hc         1 WE1       0.036700
     35 H7           0.0000     0.0000     0.0000 h1         1 WE1       0.045200
     36 H8           0.0000     0.0000     0.0000 h1         1 WE1       0.045200
     37 H9           0.0000     0.0000     0.0000 h1         1 WE1       0.032200
     38 H10          0.0000     0.0000     0.0000 h1         1 WE1       0.032200
     39 H11          0.0000     0.0000     0.0000 hn         1 WE1       0.342500
     40 H12          0.0000     0.0000     0.0000 hc         1 WE1       0.044700
     41 H13          0.0000     0.0000     0.0000 hc         1 WE1       0.044700
     42 H14          0.0000     0.0000     0.0000 hc         1 WE1       0.044700
     43 H15          0.0000     0.0000     0.0000 hc         1 WE1       0.048200
     44 H16          0.0000     0.0000     0.0000 hc         1 WE1       0.048200
     45 H17          0.0000     0.0000     0.0000 h1         1 WE1       0.032200
     46 H18          0.0000     0.0000     0.0000 h1         1 WE1       0.032200
     47 H19          0.0000     0.0000     0.0000 h1         1 WE1       0.045200
     48 H20          0.0000     0.0000     0.0000 h1         1 WE1       0.045200
     49 H21          0.0000     0.0000     0.0000 ha         1 WE1       0.133000
     50 H22          0.0000     0.0000     0.0000 ha         1 WE1       0.126500
     51 H23          0.0000     0.0000     0.0000 h4         1 WE1       0.038100
     52 H24          0.0000     0.0000     0.0000 h4         1 WE1       0.158000
     53 H25          0.0000     0.0000     0.0000 h1         1 WE1       0.063700
     54 H26          0.0000     0.0000     0.0000 h1         1 WE1       0.063700
     55 H27          0.0000     0.0000     0.0000 hn         1 WE1       0.146000
     56 C13          0.0000     0.0000     0.0000 c3         1 WE1      -0.091100
@<TRIPOS>BOND
     1     1    14 2   
     2     1    21 1   
     3     2     7 1   
     4     2    23 1   
     5     2    29 1   
     6     3     4 ar  
     7     3    12 1   
     8     3    20 ar  
     9     4     5 ar  
    10     4    30 1   
    11     5     6 ar  
    12     5    31 1   
    13     6    19 ar  
    14     6    24 1   
    15     7    24 1   
    16     7    27 2   
    17     8    15 1   
    18     8    16 1   
    19     8    23 1   
    20     8    25 1   
    21     9    17 1   
    22     9    26 1   
    23     9    35 1   
    24     9    36 1   
    25    10    18 1   
    26    10    25 1   
    27    10    37 1   
    28    10    38 1   
    29    11    12 1   
    30    11    14 1   
    31    11    39 1   
    32    12    13 2   
    33    14    28 1   
    34    15    40 1   
    35    15    41 1   
    36    15    42 1   
    37    16    43 1   
    38    16    44 1   
    39    16    56 1   
    40    17    25 1   
    41    17    45 1   
    42    17    46 1   
    43    18    26 1   
    44    18    47 1   
    45    18    48 1   
    46    19    20 ar  
    47    19    49 1   
    48    20    50 1   
    49    21    22 2   
    50    21    51 1   
    51    22    28 1   
    52    22    52 1   
    53    23    53 1   
    54    23    54 1   
    55    24    55 1   
    56    32    56 1   
    57    33    56 1   
    58    34    56 1   
@<TRIPOS>SUBSTRUCTURE
     1 WE1         1 TEMP              0 ****  ****    0 ROOT
