@<TRIPOS>MOLECULE
WE2
   37    37     1     0     0
SMALL
No Charge or Current Charge


@<TRIPOS>ATOM
      1 C01          3.9290     6.4280    18.9280 ca         1 WE2      -0.098600
      2 C02          4.8030     7.1070    21.0920 ca         1 WE2      -0.145600
      3 C04          3.7630     6.3710    21.6980 ca         1 WE2       0.263300
      4 C05          4.9030     7.1390    19.6780 ca         1 WE2       0.011700
      5 C10          3.5900     6.3280    23.2310 c3         1 WE2       0.140000
      6 C11          6.0450     7.9090    18.9870 c3         1 WE2      -0.050100
      7 O12          6.5490     7.0240    22.7220 os         1 WE2      -0.441100
      8 C21          7.4410     7.2380    19.1260 c3         1 WE2      -0.053700
      9 C22          7.5240     7.6230    23.5930 c3         1 WE2       0.151900
     10 C23          7.4770     5.8160    18.5230 c3         1 WE2      -0.087600
     11 C24          8.5500     8.1260    18.5200 c3         1 WE2      -0.087600
     12 C03          2.9130     5.7170    19.6080 ca         1 WE2       0.253300
     13 N06          2.8460     5.6970    20.9640 nb         1 WE2      -0.637000
     14 C08          5.7680     7.8530    21.9600 c          1 WE2       0.617700
     15 C09          3.9510     6.4270    17.4290 c          1 WE2       0.721600
     16 O13          4.4730     5.4810    16.8600 o          1 WE2      -0.683500
     17 F14          0.8670     4.4070    19.6790 f          1 WE2      -0.108333
     18 F15          2.3220     3.8770    18.1660 f          1 WE2      -0.108333
     19 F16          1.1440     5.6950    17.9630 f          1 WE2      -0.108333
     20 O17          5.8390     9.0750    21.9850 o          1 WE2      -0.477000
     21 F18          3.2460     7.5410    23.7260 f          1 WE2      -0.119500
     22 F19          2.6340     5.4600    23.6460 f          1 WE2      -0.119500
     23 O20          3.4680     7.3900    16.8520 o          1 WE2      -0.683500
     24 H25          4.5320     6.0240    23.6980 h2         1 WE2       0.063700
     25 H27          5.8450     8.0620    17.9220 hc         1 WE2       0.077700
     26 H26          6.0970     8.9260    19.3940 hc         1 WE2       0.077700
     27 H29          7.6700     7.1380    20.1930 hc         1 WE2       0.027700
     28 H30          8.0750     6.8470    24.1390 h1         1 WE2       0.043367
     29 H32          8.2490     8.2150    23.0190 h1         1 WE2       0.043367
     30 H31          7.0410     8.2790    24.3290 h1         1 WE2       0.043367
     31 H34          8.4660     5.3620    18.6650 hc         1 WE2       0.033200
     32 H35          6.7400     5.1640    19.0060 hc         1 WE2       0.033200
     33 H33          7.2660     5.8430    17.4480 hc         1 WE2       0.033200
     34 H36          9.5370     7.6700    18.6690 hc         1 WE2       0.033200
     35 H38          8.3960     8.2660    17.4430 hc         1 WE2       0.033200
     36 H37          8.5610     9.1140    18.9970 hc         1 WE2       0.033200
     37 C07          1.8110     4.9240    18.8540 c3         1 WE2       0.273700
@<TRIPOS>BOND
     1     1     4 ar  
     2     1    12 ar  
     3     1    15 1   
     4     2     3 ar  
     5     2     4 ar  
     6     2    14 1   
     7     3     5 1   
     8     3    13 ar  
     9     4     6 1   
    10     5    21 1   
    11     5    22 1   
    12     5    24 1   
    13     6     8 1   
    14     6    25 1   
    15     6    26 1   
    16     7     9 1   
    17     7    14 1   
    18     8    10 1   
    19     8    11 1   
    20     8    27 1   
    21     9    28 1   
    22     9    29 1   
    23     9    30 1   
    24    10    31 1   
    25    10    32 1   
    26    10    33 1   
    27    11    34 1   
    28    11    35 1   
    29    11    36 1   
    30    12    13 ar  
    31    12    37 1   
    32    14    20 2   
    33    15    16 1   
    34    15    23 1   
    35    17    37 1   
    36    18    37 1   
    37    19    37 1   
@<TRIPOS>SUBSTRUCTURE
     1 WE2         1 TEMP              0 ****  ****    0 ROOT
