@<TRIPOS>MOLECULE
WE2
   37    37     1     0     0
SMALL
abcg2


@<TRIPOS>ATOM
      1 C01          3.9510     6.4520    18.9210 ca         1 WE2      -0.098600
      2 C02          4.8230     7.0890    21.0670 ca         1 WE2      -0.145600
      3 C04          3.8100     6.3320    21.6550 ca         1 WE2       0.263300
      4 C05          4.9060     7.1550    19.6730 ca         1 WE2       0.011700
      5 C10          3.6950     6.1670    23.1540 c3         1 WE2       0.140000
      6 C11          6.0250     7.9110    19.0060 c3         1 WE2      -0.050100
      7 O12          6.5000     7.0640    22.6840 os         1 WE2      -0.441100
      8 C21          7.4060     7.2480    19.1560 c3         1 WE2      -0.053700
      9 C22          7.4310     7.6710    23.5870 c3         1 WE2       0.151900
     10 C23          7.4440     5.8530    18.5470 c3         1 WE2      -0.087600
     11 C24          8.4640     8.1460    18.5260 c3         1 WE2      -0.087600
     12 C03          2.9690     5.7660    19.6250 ca         1 WE2       0.253300
     13 N06          2.9060     5.6970    20.9430 nb         1 WE2      -0.637000
     14 C08          5.7770     7.8650    21.9230 c          1 WE2       0.617700
     15 C09          4.0090     6.4270    17.3890 c          1 WE2       0.721600
     16 O13          4.3550     5.3400    16.9030 o          1 WE2      -0.683500
     17 F14          0.7730     4.9320    19.6970 f          1 WE2      -0.108333
     18 F15          2.2480     3.7150    18.7170 f          1 WE2      -0.108333
     19 F16          1.5070     5.5040    17.7680 f          1 WE2      -0.108333
     20 O17          5.8650     9.0640    21.9100 o          1 WE2      -0.477000
     21 F18          3.8420     7.3780    23.7640 f          1 WE2      -0.119500
     22 F19          2.4670     5.7110    23.4810 f          1 WE2      -0.119500
     23 O20          3.7150     7.4880    16.8200 o          1 WE2      -0.683500
     24 H25          4.4390     5.4830    23.5670 h2         1 WE2       0.063700
     25 H27          5.8090     8.0310    17.9460 hc         1 WE2       0.077700
     26 H26          6.0720     8.9210    19.4150 hc         1 WE2       0.077700
     27 H29          7.6450     7.1520    20.2200 hc         1 WE2       0.027700
     28 H30          7.9070     6.8520    24.1160 h1         1 WE2       0.043367
     29 H32          8.1840     8.2430    23.0460 h1         1 WE2       0.043367
     30 H31          6.9230     8.3210    24.2980 h1         1 WE2       0.043367
     31 H34          8.4320     5.4100    18.6780 hc         1 WE2       0.033200
     32 H35          6.7180     5.1820    19.0080 hc         1 WE2       0.033200
     33 H33          7.2320     5.8880    17.4770 hc         1 WE2       0.033200
     34 H36          9.4610     7.7210    18.6500 hc         1 WE2       0.033200
     35 H38          8.2850     8.2660    17.4560 hc         1 WE2       0.033200
     36 H37          8.4650     9.1390    18.9780 hc         1 WE2       0.033200
     37 C07          1.8710     4.9810    18.9420 c3         1 WE2       0.273700
@<TRIPOS>BOND
     1     1     4 ar  
     2     1    12 ar  
     3     1    15 1   
     4     2     3 ar  
     5     2     4 ar  
     6     2    14 1   
     7     3     5 1   
     8     3    13 ar  
     9     4     6 1   
    10     5    21 1   
    11     5    22 1   
    12     5    24 1   
    13     6     8 1   
    14     6    25 1   
    15     6    26 1   
    16     7     9 1   
    17     7    14 1   
    18     8    10 1   
    19     8    11 1   
    20     8    27 1   
    21     9    28 1   
    22     9    29 1   
    23     9    30 1   
    24    10    31 1   
    25    10    32 1   
    26    10    33 1   
    27    11    34 1   
    28    11    35 1   
    29    11    36 1   
    30    12    13 ar  
    31    12    37 1   
    32    14    20 2   
    33    15    16 1   
    34    15    23 1   
    35    17    37 1   
    36    18    37 1   
    37    19    37 1   
@<TRIPOS>SUBSTRUCTURE
     1 WE2         1 TEMP              0 ****  ****    0 ROOT
