@<TRIPOS>MOLECULE
WE3
   40    42     1     0     0
SMALL
No Charge or Current Charge


@<TRIPOS>ATOM
      1 C10        -15.0200    36.5610   -14.1880 cy         1 WE3      -0.021300
      2 C11        -13.3360    36.7250   -16.0290 c          1 WE3       0.632700
      3 C12        -12.6130    35.9980   -17.1440 ca         1 WE3      -0.236600
      4 C13        -11.6590    36.6780   -17.9400 ca         1 WE3       0.135100
      5 C14        -10.9800    36.0100   -18.9820 ca         1 WE3       0.099100
      6 C15        -11.2420    34.6580   -19.2440 ca         1 WE3      -0.089000
      7 C16        -12.1850    33.9710   -18.4640 ca         1 WE3      -0.121000
      8 C17        -12.8650    34.6300   -17.4250 ca         1 WE3      -0.081000
      9 C01        -20.4650    39.9520   -16.0880 ca         1 WE3      -0.175200
     10 C02        -20.5110    38.5510   -15.8940 ca         1 WE3      -0.043500
     11 C03        -19.3220    37.8030   -15.8340 ca         1 WE3      -0.111000
     12 C04        -18.0720    38.4350   -15.9670 ca         1 WE3      -0.040300
     13 C05        -18.0220    39.8280   -16.1580 ca         1 WE3      -0.111000
     14 C06        -19.2060    40.5840   -16.2190 ca         1 WE3      -0.043500
     15 C07        -16.1010    35.7000   -13.4760 c          1 WE3       0.638100
     16 C08        -16.7870    37.6220   -15.8980 c3         1 WE3      -0.044100
     17 C09        -16.2480    37.4950   -14.4600 cy         1 WE3       0.135300
     18 N01        -14.2420    36.0020   -15.2880 ns         1 WE3      -0.466900
     19 O01        -10.0630    36.6870   -19.7370 oh         1 WE3      -0.530100
     20 O02        -11.3800    37.9980   -17.7110 oh         1 WE3      -0.572100
     21 O03        -22.8080    40.1560   -16.0320 o          1 WE3      -0.397000
     22 O04        -21.6400    41.9770   -16.3220 o          1 WE3      -0.397000
     23 O05        -17.0990    36.6360   -13.6170 oq         1 WE3      -0.413100
     24 O06        -16.1580    34.6020   -12.9420 o          1 WE3      -0.448000
     25 O07        -13.1300    37.9100   -15.7940 o          1 WE3      -0.643100
     26 H1         -14.3280    36.9850   -13.4530 h1         1 WE3       0.119700
     27 H2         -10.7180    34.1460   -20.0470 ha         1 WE3       0.136000
     28 H3         -12.3910    32.9220   -18.6660 ha         1 WE3       0.125000
     29 H4         -13.5860    34.0550   -16.8500 ha         1 WE3       0.108000
     30 H5         -21.4630    38.0330   -15.7870 ha         1 WE3       0.153500
     31 H6         -19.3730    36.7280   -15.6800 ha         1 WE3       0.129000
     32 H7         -17.0620    40.3300   -16.2600 ha         1 WE3       0.129000
     33 H8         -19.1350    41.6600   -16.3690 ha         1 WE3       0.153500
     34 H9         -16.9530    36.6240   -16.3220 hc         1 WE3       0.069200
     35 H10        -16.0210    38.0870   -16.5300 hc         1 WE3       0.069200
     36 H11        -16.1290    38.4900   -14.0130 h1         1 WE3       0.099700
     37 H12        -14.3440    35.0250   -15.5380 hn         1 WE3       0.338500
     38 H13        -10.0420    37.6050   -19.3820 ho         1 WE3       0.488000
     39 H14        -11.9630    38.2670   -16.9480 ho         1 WE3       0.530000
     40 N02        -21.7300    40.7530   -16.1520 no         1 WE3       0.693200
@<TRIPOS>BOND
     1     1    15 1   
     2     1    17 1   
     3     1    18 1   
     4     1    26 1   
     5     2     3 1   
     6     2    18 1   
     7     2    25 2   
     8     3     4 ar  
     9     3     8 ar  
    10     4     5 ar  
    11     4    20 1   
    12     5     6 ar  
    13     5    19 1   
    14     6     7 ar  
    15     6    27 1   
    16     7     8 ar  
    17     7    28 1   
    18     8    29 1   
    19     9    10 ar  
    20     9    14 ar  
    21     9    40 1   
    22    10    11 ar  
    23    10    30 1   
    24    11    12 ar  
    25    11    31 1   
    26    12    13 ar  
    27    12    16 1   
    28    13    14 ar  
    29    13    32 1   
    30    14    33 1   
    31    15    23 1   
    32    15    24 2   
    33    16    17 1   
    34    16    34 1   
    35    16    35 1   
    36    17    23 1   
    37    17    36 1   
    38    18    37 1   
    39    19    38 1   
    40    20    39 1   
    41    21    40 1   
    42    22    40 1   
@<TRIPOS>SUBSTRUCTURE
     1 WE3         1 TEMP              0 ****  ****    0 ROOT
