@<TRIPOS>MOLECULE
WE3
   40    42     1     0     0
SMALL
abcg2


@<TRIPOS>ATOM
      1 C10        -15.0040    36.7530   -14.3250 cy         1 WE3      -0.021300
      2 C11        -13.2960    36.6420   -16.0170 c          1 WE3       0.632700
      3 C12        -12.6460    35.9140   -17.1260 ca         1 WE3      -0.236600
      4 C13        -11.5940    36.5590   -17.7930 ca         1 WE3       0.135100
      5 C14        -10.9380    35.9140   -18.8580 ca         1 WE3       0.099100
      6 C15        -11.3310    34.6470   -19.2380 ca         1 WE3      -0.089000
      7 C16        -12.3730    34.0020   -18.5720 ca         1 WE3      -0.121000
      8 C17        -13.0210    34.6240   -17.5290 ca         1 WE3      -0.081000
      9 C01        -20.4890    39.8010   -16.0060 ca         1 WE3      -0.175200
     10 C02        -20.4660    38.4190   -15.8920 ca         1 WE3      -0.043500
     11 C03        -19.2450    37.7690   -15.9010 ca         1 WE3      -0.111000
     12 C04        -18.0550    38.4810   -16.0230 ca         1 WE3      -0.040300
     13 C05        -18.1090    39.8680   -16.1380 ca         1 WE3      -0.111000
     14 C06        -19.3200    40.5380   -16.1330 ca         1 WE3      -0.043500
     15 C07        -16.0520    35.9640   -13.5600 c          1 WE3       0.638100
     16 C08        -16.7320    37.7730   -15.9890 c3         1 WE3      -0.044100
     17 C09        -16.1830    37.7140   -14.5840 cy         1 WE3       0.135300
     18 N01        -14.3520    36.0830   -15.4000 ns         1 WE3      -0.466900
     19 O01         -9.9270    36.5200   -19.5080 oh         1 WE3      -0.530100
     20 O02        -11.1510    37.7810   -17.4850 oh         1 WE3      -0.572100
     21 O03        -22.7700    39.8370   -15.8500 o          1 WE3      -0.397000
     22 O04        -21.7630    41.6960   -16.1400 o          1 WE3      -0.397000
     23 O05        -17.0100    36.8910   -13.7000 oq         1 WE3      -0.413100
     24 O06        -16.1250    34.9170   -13.0020 o          1 WE3      -0.448000
     25 O07        -12.8850    37.7500   -15.6520 o          1 WE3      -0.643100
     26 H1         -14.2720    37.1920   -13.6430 h1         1 WE3       0.119700
     27 H2         -10.8180    34.1580   -20.0560 ha         1 WE3       0.136000
     28 H3         -12.6660    33.0070   -18.8750 ha         1 WE3       0.125000
     29 H4         -13.8170    34.0880   -17.0290 ha         1 WE3       0.108000
     30 H5         -21.3800    37.8490   -15.7980 ha         1 WE3       0.153500
     31 H6         -19.2220    36.6900   -15.8200 ha         1 WE3       0.129000
     32 H7         -17.1930    40.4360   -16.2390 ha         1 WE3       0.129000
     33 H8         -19.3410    41.6130   -16.2270 ha         1 WE3       0.153500
     34 H9         -16.8270    36.7670   -16.4060 hc         1 WE3       0.069200
     35 H10        -16.0020    38.3090   -16.6010 hc         1 WE3       0.069200
     36 H11        -16.0590    38.7080   -14.1540 h1         1 WE3       0.099700
     37 H12        -14.7620    35.2340   -15.7550 hn         1 WE3       0.338500
     38 H13         -9.7520    37.3880   -19.1220 ho         1 WE3       0.488000
     39 H14        -11.6760    38.0880   -16.7050 ho         1 WE3       0.530000
     40 N02        -21.7670    40.4950   -15.9990 no         1 WE3       0.693200
@<TRIPOS>BOND
     1     1    15 1   
     2     1    17 1   
     3     1    18 1   
     4     1    26 1   
     5     2     3 1   
     6     2    18 1   
     7     2    25 2   
     8     3     4 ar  
     9     3     8 ar  
    10     4     5 ar  
    11     4    20 1   
    12     5     6 ar  
    13     5    19 1   
    14     6     7 ar  
    15     6    27 1   
    16     7     8 ar  
    17     7    28 1   
    18     8    29 1   
    19     9    10 ar  
    20     9    14 ar  
    21     9    40 1   
    22    10    11 ar  
    23    10    30 1   
    24    11    12 ar  
    25    11    31 1   
    26    12    13 ar  
    27    12    16 1   
    28    13    14 ar  
    29    13    32 1   
    30    14    33 1   
    31    15    23 1   
    32    15    24 2   
    33    16    17 1   
    34    16    34 1   
    35    16    35 1   
    36    17    23 1   
    37    17    36 1   
    38    18    37 1   
    39    19    38 1   
    40    20    39 1   
    41    21    40 1   
    42    22    40 1   
@<TRIPOS>SUBSTRUCTURE
     1 WE3         1 TEMP              0 ****  ****    0 ROOT
