@<TRIPOS>MOLECULE
WE4
   16    16     1     0     0
SMALL
No Charge or Current Charge


@<TRIPOS>ATOM
      1 C10         31.4670    26.3980    -1.5760 c          1 WE4       0.737600
      2 C13         33.2010    26.9690     0.1690 ca         1 WE4       0.019100
      3 C15         33.7000    27.8120     1.1850 ca         1 WE4       0.019100
      4 C02         33.5320    29.8790     2.6240 c          1 WE4       0.737600
      5 C04         33.0010    28.9830     1.5440 ca         1 WE4      -0.104100
      6 C05         31.7980    29.3080     0.8800 ca         1 WE4       0.019100
      7 C07         31.2990    28.4660    -0.1360 ca         1 WE4       0.019100
      8 C09         31.9980    27.2940    -0.4950 ca         1 WE4      -0.104100
      9 O01         33.1780    29.6640     3.7760 o          1 WE4      -0.705000
     10 O03         34.2930    30.7810     2.3010 o          1 WE4      -0.705000
     11 O11         31.8210    26.6140    -2.7270 o          1 WE4      -0.705000
     12 O12         30.7060    25.4960    -1.2520 o          1 WE4      -0.705000
     13 Br06        30.8410    30.9080     1.3680 br         1 WE4      -0.130850
     14 Br08        29.6560    28.9110    -1.0410 br         1 WE4      -0.130850
     15 Br14        34.1580    25.3690    -0.3190 br         1 WE4      -0.130850
     16 Br16        35.3430    27.3670     2.0900 br         1 WE4      -0.130850
@<TRIPOS>BOND
     1     1     8 1   
     2     1    11 1   
     3     1    12 1   
     4     2     3 ar  
     5     2     8 ar  
     6     2    15 1   
     7     3     5 ar  
     8     3    16 1   
     9     4     5 1   
    10     4     9 1   
    11     4    10 1   
    12     5     6 ar  
    13     6     7 ar  
    14     6    13 1   
    15     7     8 ar  
    16     7    14 1   
@<TRIPOS>SUBSTRUCTURE
     1 WE4         1 TEMP              0 ****  ****    0 ROOT
