@<TRIPOS>MOLECULE
WE4
   16    16     1     0     0
SMALL
abcg2


@<TRIPOS>ATOM
      1 C10         31.4550    26.3780    -1.6060 c          1 WE4       0.737600
      2 C13         33.1830    26.9970     0.1700 ca         1 WE4       0.019100
      3 C15         33.6750    27.8290     1.1710 ca         1 WE4       0.019100
      4 C02         33.5440    29.9000     2.6550 c          1 WE4       0.737600
      5 C04         32.9980    28.9840     1.5440 ca         1 WE4      -0.104100
      6 C05         31.8160    29.2800     0.8790 ca         1 WE4       0.019100
      7 C07         31.3240    28.4480    -0.1220 ca         1 WE4       0.019100
      8 C09         32.0010    27.2940    -0.4960 ca         1 WE4      -0.104100
      9 O01         33.1240    29.6500     3.7910 o          1 WE4      -0.705000
     10 O03         34.3370    30.7660     2.2670 o          1 WE4      -0.705000
     11 O11         31.8720    26.6310    -2.7430 o          1 WE4      -0.705000
     12 O12         30.6660    25.5080    -1.2180 o          1 WE4      -0.705000
     13 BR06        30.8940    30.8520     1.3630 br         1 WE4      -0.130850
     14 BR08        29.7110    28.8600    -1.0070 br         1 WE4      -0.130850
     15 BR14        34.1040    25.4250    -0.3130 br         1 WE4      -0.130850
     16 BR16        35.2880    27.4180     2.0560 br         1 WE4      -0.130850
@<TRIPOS>BOND
     1     1     8 1   
     2     1    11 1   
     3     1    12 1   
     4     2     3 ar  
     5     2     8 ar  
     6     2    15 1   
     7     3     5 ar  
     8     3    16 1   
     9     4     5 1   
    10     4     9 1   
    11     4    10 1   
    12     5     6 ar  
    13     6     7 ar  
    14     6    13 1   
    15     7     8 ar  
    16     7    14 1   
@<TRIPOS>SUBSTRUCTURE
     1 WE4         1 TEMP              0 ****  ****    0 ROOT
