@<TRIPOS>MOLECULE
WE6
   49    53     1     0     0
SMALL
No Charge or Current Charge


@<TRIPOS>ATOM
      1 C10          2.9440     6.3520    21.9840 cc         1 WE6       0.641500
      2 O14          2.4020     6.5970    23.2130 os         1 WE6      -0.124700
      3 C15          5.7000     7.9590    23.5470 cx         1 WE6      -0.188000
      4 C17          4.5850     5.6850    18.0920 c          1 WE6       0.659100
      5 C20          6.7420     6.1730    16.8180 c5         1 WE6      -0.015300
      6 C21          7.9550     7.0490    17.2590 c5         1 WE6      -0.078400
      7 C22          8.0930     6.6770    18.7550 c5         1 WE6      -0.095400
      8 C23          6.6190     6.7200    19.2300 c5         1 WE6       0.103000
      9 C24          6.0820     6.7960    15.5370 c          1 WE6       0.717000
     10 C27          7.0370     7.4220    23.0760 cx         1 WE6      -0.105400
     11 C28          6.5410     8.7580    22.5710 cx         1 WE6      -0.105400
     12 C1          -1.3250     4.4890    22.2860 c6         1 WE6      -0.070400
     13 C2          -2.0190     4.6550    20.9150 c6         1 WE6      -0.071400
     14 C3          -1.1050     4.1410    19.7800 c6         1 WE6       0.010900
     15 C4          -0.0120     5.3130    22.3700 c6         1 WE6      -0.014100
     16 S5           1.4730     4.6840    18.6090 ss         1 WE6       0.309000
     17 C6           2.6610     5.4700    19.6760 cd         1 WE6       0.075600
     18 C7           2.1610     5.6950    20.9480 cc         1 WE6      -0.349500
     19 C8           0.8090     5.2200    21.0910 cc         1 WE6      -0.017300
     20 C9           0.3000     4.6830    19.9310 cd         1 WE6      -0.284300
     21 N11          4.1860     6.7920    21.8930 nd         1 WE6      -0.815000
     22 C12          4.4150     7.3260    23.1370 cd         1 WE6       0.619300
     23 N13          3.3970     7.2450    23.9730 nc         1 WE6      -0.414300
     24 N18          5.9100     6.1620    18.0590 n          1 WE6      -0.378800
     25 O19          4.0620     5.1670    17.1160 o          1 WE6      -0.615100
     26 H37          5.6670     8.3320    24.5680 hc         1 WE6       0.093700
     27 H39          7.0650     5.1510    16.5800 h1         1 WE6       0.054700
     28 H40          8.8600     6.8310    16.6810 hc         1 WE6       0.053200
     29 H41          7.7460     8.1200    17.1470 hc         1 WE6       0.053200
     30 H43          8.5170     5.6720    18.8740 hc         1 WE6       0.034200
     31 H42          8.7320     7.3720    19.3100 hc         1 WE6       0.034200
     32 H45          6.2880     7.7480    19.4270 h1         1 WE6       0.037200
     33 H44          6.4740     6.1180    20.1370 h1         1 WE6       0.037200
     34 H47          7.8620     7.4230    23.7840 hc         1 WE6       0.080200
     35 H48          7.0380     6.5840    22.3840 hc         1 WE6       0.080200
     36 H50          6.2050     8.8210    21.5390 hc         1 WE6       0.080200
     37 H49          7.0330     9.6540    22.9420 hc         1 WE6       0.080200
     38 H29         -2.0050     4.7920    23.0940 hc         1 WE6       0.035200
     39 H30         -1.1010     3.4260    22.4520 hc         1 WE6       0.035200
     40 H31         -2.9720     4.1090    20.9040 hc         1 WE6       0.037200
     41 H32         -2.2590     5.7140    20.7490 hc         1 WE6       0.037200
     42 H33         -1.0820     3.0420    19.7980 hc         1 WE6       0.043700
     43 H34         -1.5300     4.4240    18.8070 hc         1 WE6       0.043700
     44 H35         -0.2600     6.3630    22.5780 hc         1 WE6       0.054700
     45 H36          0.5560     4.9440    23.2340 hc         1 WE6       0.054700
     46 O25          5.4770     7.8590    15.6200 o          1 WE6      -0.715500
     47 N16          3.9420     5.8360    19.3000 ns         1 WE6      -0.385100
     48 O26          6.1870     6.1990    14.4740 o          1 WE6      -0.715500
     49 H38          4.5060     6.2870    20.0120 hn         1 WE6       0.363500
@<TRIPOS>BOND
     1     1     2 1   
     2     1    18 1   
     3     1    21 2   
     4     2    23 1   
     5     3    10 1   
     6     3    11 1   
     7     3    22 1   
     8     3    26 1   
     9     4    24 1   
    10     4    25 2   
    11     4    47 1   
    12     5     6 1   
    13     5     9 1   
    14     5    24 1   
    15     5    27 1   
    16     6     7 1   
    17     6    28 1   
    18     6    29 1   
    19     7     8 1   
    20     7    30 1   
    21     7    31 1   
    22     8    24 1   
    23     8    32 1   
    24     8    33 1   
    25     9    46 1   
    26     9    48 1   
    27    10    11 1   
    28    10    34 1   
    29    10    35 1   
    30    11    36 1   
    31    11    37 1   
    32    12    13 1   
    33    12    15 1   
    34    12    38 1   
    35    12    39 1   
    36    13    14 1   
    37    13    40 1   
    38    13    41 1   
    39    14    20 1   
    40    14    42 1   
    41    14    43 1   
    42    15    19 1   
    43    15    44 1   
    44    15    45 1   
    45    16    17 1   
    46    16    20 1   
    47    17    18 2   
    48    17    47 1   
    49    18    19 1   
    50    19    20 2   
    51    21    22 1   
    52    22    23 2   
    53    47    49 1   
@<TRIPOS>SUBSTRUCTURE
     1 WE6         1 TEMP              0 ****  ****    0 ROOT
