@<TRIPOS>MOLECULE
WE6
   49    53     1     0     0
SMALL
abcg2


@<TRIPOS>ATOM
      1 C10          2.9250     6.4520    22.0840 cc         1 WE6       0.641500
      2 O14          2.3650     6.7090    23.2800 os         1 WE6      -0.124700
      3 C15          5.6410     8.0730    23.6570 cx         1 WE6      -0.188000
      4 C17          4.5940     5.7790    18.1880 c          1 WE6       0.659100
      5 C20          6.5500     6.1520    16.7730 c5         1 WE6      -0.015300
      6 C21          7.9550     6.7000    17.0990 c5         1 WE6      -0.078400
      7 C22          8.1290     6.4480    18.5980 c5         1 WE6      -0.095400
      8 C23          6.7270     6.6780    19.1540 c5         1 WE6       0.103000
      9 C24          5.8780     7.0120    15.6720 c          1 WE6       0.717000
     10 C27          6.9430     7.4890    23.1500 cx         1 WE6      -0.105400
     11 C28          6.4680     8.8010    22.6180 cx         1 WE6      -0.105400
     12 C1          -1.2780     4.4110    22.1810 c6         1 WE6      -0.070400
     13 C2          -1.9020     4.5540    20.7940 c6         1 WE6      -0.071400
     14 C3          -0.9160     4.1130    19.7080 c6         1 WE6       0.010900
     15 C4          -0.0490     5.3130    22.3490 c6         1 WE6      -0.014100
     16 S5           1.6540     4.7920    18.7230 ss         1 WE6       0.309000
     17 C6           2.7590     5.5850    19.7920 cd         1 WE6       0.075600
     18 C7           2.1920     5.7880    21.0520 cc         1 WE6      -0.349500
     19 C8           0.8430     5.2710    21.1380 cc         1 WE6      -0.017300
     20 C9           0.4300     4.7190    19.9680 cd         1 WE6      -0.284300
     21 N11          4.1640     6.8930    22.0250 nd         1 WE6      -0.815000
     22 C12          4.3780     7.4510    23.2580 cd         1 WE6       0.619300
     23 N13          3.3480     7.3770    24.0590 nc         1 WE6      -0.414300
     24 N18          5.8690     6.1890    18.0710 n          1 WE6      -0.378800
     25 O19          3.9510     5.2600    17.2690 o          1 WE6      -0.615100
     26 H37          5.6360     8.4770    24.6600 hc         1 WE6       0.093700
     27 H39          6.6020     5.1210    16.4190 h1         1 WE6       0.054700
     28 H40          8.7210     6.2230    16.4900 hc         1 WE6       0.053200
     29 H41          7.9800     7.7730    16.9000 hc         1 WE6       0.053200
     30 H43          8.4290     5.4140    18.7790 hc         1 WE6       0.034200
     31 H42          8.8670     7.1050    19.0580 hc         1 WE6       0.034200
     32 H45          6.5420     7.7390    19.3490 h1         1 WE6       0.037200
     33 H44          6.5530     6.1220    20.0750 h1         1 WE6       0.037200
     34 H47          7.7720     7.4800    23.8450 hc         1 WE6       0.080200
     35 H48          6.8720     6.6270    22.5020 hc         1 WE6       0.080200
     36 H50          6.0750     8.8230    21.6110 hc         1 WE6       0.080200
     37 H49          6.9660     9.7040    22.9420 hc         1 WE6       0.080200
     38 H29         -2.0090     4.6490    22.9560 hc         1 WE6       0.035200
     39 H30         -0.9820     3.3680    22.3310 hc         1 WE6       0.035200
     40 H31         -2.8160     3.9600    20.7230 hc         1 WE6       0.037200
     41 H32         -2.1820     5.5990    20.6270 hc         1 WE6       0.037200
     42 H33         -0.8400     3.0190    19.6990 hc         1 WE6       0.043700
     43 H34         -1.2810     4.4040    18.7190 hc         1 WE6       0.043700
     44 H35         -0.3650     6.3470    22.5290 hc         1 WE6       0.054700
     45 H36          0.5110     5.0150    23.2370 hc         1 WE6       0.054700
     46 O25          5.2790     8.0530    16.0310 o          1 WE6      -0.715500
     47 N16          4.0210     5.9690    19.4380 ns         1 WE6      -0.385100
     48 O26          6.0560     6.6090    14.4960 o          1 WE6      -0.715500
     49 H38          4.5320     6.4390    20.1830 hn         1 WE6       0.363500
@<TRIPOS>BOND
     1     1     2 1   
     2     1    18 1   
     3     1    21 2   
     4     2    23 1   
     5     3    10 1   
     6     3    11 1   
     7     3    22 1   
     8     3    26 1   
     9     4    24 1   
    10     4    25 2   
    11     4    47 1   
    12     5     6 1   
    13     5     9 1   
    14     5    24 1   
    15     5    27 1   
    16     6     7 1   
    17     6    28 1   
    18     6    29 1   
    19     7     8 1   
    20     7    30 1   
    21     7    31 1   
    22     8    24 1   
    23     8    32 1   
    24     8    33 1   
    25     9    46 1   
    26     9    48 1   
    27    10    11 1   
    28    10    34 1   
    29    10    35 1   
    30    11    36 1   
    31    11    37 1   
    32    12    13 1   
    33    12    15 1   
    34    12    38 1   
    35    12    39 1   
    36    13    14 1   
    37    13    40 1   
    38    13    41 1   
    39    14    20 1   
    40    14    42 1   
    41    14    43 1   
    42    15    19 1   
    43    15    44 1   
    44    15    45 1   
    45    16    17 1   
    46    16    20 1   
    47    17    18 2   
    48    17    47 1   
    49    18    19 1   
    50    19    20 2   
    51    21    22 1   
    52    22    23 2   
    53    47    49 1   
@<TRIPOS>SUBSTRUCTURE
     1 WE6         1 TEMP              0 ****  ****    0 ROOT
