@<TRIPOS>MOLECULE
WE7
   41    44     1     0     0
SMALL
bcc


@<TRIPOS>ATOM
      1 C4          19.8880    15.8080    14.3180 cc         1 WE7      -0.035300
      2 C5          18.7400    16.2090    15.0100 cc         1 WE7      -0.172900
      3 C6          17.7570    15.2580    15.3020 cd         1 WE7       0.804200
      4 C8          20.0370    17.8430    14.7640 cd         1 WE7       0.576900
      5 N1          17.9550    13.9820    14.8950 nd         1 WE7      -0.811000
      6 N3          20.0250    14.5110    13.9090 na         1 WE7      -0.172900
      7 CAE         22.5840    15.5420    11.6390 ca         1 WE7       0.063900
      8 CAF         22.7820    16.2640    10.4740 ca         1 WE7      -0.121000
      9 CAA         21.7880    16.2860     9.5110 ca         1 WE7      -0.096000
     10 CAB         20.6170    15.5750     9.7030 ca         1 WE7      -0.121000
     11 CAC         20.4500    14.8550    10.8750 ca         1 WE7       0.063900
     12 CLAJ        18.9910    13.9370    11.0480 cl         1 WE7      -0.102900
     13 CAD         21.4090    14.8310    11.8880 ca         1 WE7      -0.088300
     14 CAG         21.1920    14.0550    13.1600 c3         1 WE7       0.095600
     15 C2          19.0310    13.6700    14.2360 cc         1 WE7       0.600400
     16 N6          16.6380    15.5350    15.9590 nv         1 WE7      -0.927500
     17 N7          18.8550    17.5300    15.2860 nc         1 WE7      -0.587100
     18 N9          20.7150    16.8280    14.1590 nd         1 WE7      -0.411300
     19 CAT         20.5380    19.2260    14.7990 ca         1 WE7      -0.078900
     20 CAU         19.6000    20.2530    14.6630 ca         1 WE7      -0.101000
     21 CAV         19.9780    21.5850    14.6790 ca         1 WE7      -0.146000
     22 CAW         21.3170    21.9100    14.8420 ca         1 WE7      -0.124000
     23 CAX         22.2520    20.8980    14.9950 ca         1 WE7      -0.145000
     24 CAY         21.8930    19.5500    14.9780 ca         1 WE7      -0.040300
     25 CAZ         22.9650    18.5190    15.1830 c3         1 WE7      -0.042800
     26 H1          23.7060    16.8050    10.3220 ha         1 WE7       0.154500
     27 H2          21.9320    16.8520     8.6010 ha         1 WE7       0.144000
     28 H3          19.8430    15.5720     8.9480 ha         1 WE7       0.154500
     29 H4          21.0460    12.9980    12.9360 h1         1 WE7       0.078700
     30 H5          22.0620    14.1270    13.8080 h1         1 WE7       0.078700
     31 H6          19.1570    12.6440    13.9140 h5         1 WE7       0.048100
     32 H7          15.9630    14.8140    16.1480 hn         1 WE7       0.458800
     33 H8          16.4480    16.4670    16.2850 hn         1 WE7       0.458800
     34 H9          18.5570    19.9950    14.5310 ha         1 WE7       0.140000
     35 H10         19.2330    22.3610    14.5630 ha         1 WE7       0.126000
     36 H11         21.6330    22.9450    14.8580 ha         1 WE7       0.125000
     37 H12         23.2940    21.1570    15.1430 ha         1 WE7       0.123000
     38 H13         23.2140    18.0030    14.2570 hc         1 WE7       0.043700
     39 H14         23.8740    18.9890    15.5550 hc         1 WE7       0.043700
     40 H15         22.6650    17.7530    15.8970 hc         1 WE7       0.043700
     41 CLAI        23.8790    15.5350    12.7900 cl         1 WE7      -0.102900
@<TRIPOS>BOND
     1     1     2 1   
     2     1     6 1   
     3     1    18 2   
     4     2     3 2   
     5     2    17 1   
     6     3     5 1   
     7     3    16 1   
     8     4    17 2   
     9     4    18 1   
    10     4    19 1   
    11     5    15 2   
    12     6    14 1   
    13     6    15 1   
    14     7     8 ar  
    15     7    13 ar  
    16     7    41 1   
    17     8     9 ar  
    18     8    26 1   
    19     9    10 ar  
    20     9    27 1   
    21    10    11 ar  
    22    10    28 1   
    23    11    12 1   
    24    11    13 ar  
    25    13    14 1   
    26    14    29 1   
    27    14    30 1   
    28    15    31 1   
    29    16    32 1   
    30    16    33 1   
    31    19    20 ar  
    32    19    24 ar  
    33    20    21 ar  
    34    20    34 1   
    35    21    22 ar  
    36    21    35 1   
    37    22    23 ar  
    38    22    36 1   
    39    23    24 ar  
    40    23    37 1   
    41    24    25 1   
    42    25    38 1   
    43    25    39 1   
    44    25    40 1   
@<TRIPOS>SUBSTRUCTURE
     1 WE7         1 TEMP              0 ****  ****    0 ROOT
