@<TRIPOS>MOLECULE
WE7
   41    44     1     0     0
SMALL
No Charge or Current Charge


@<TRIPOS>ATOM
      1 C4          19.6530    15.8670    14.4030 cc         1 WE7      -0.086000
      2 C5          18.4540    16.3160    14.8410 cc         1 WE7      -0.107600
      3 C6          17.3610    15.4840    14.9350 cd         1 WE7       0.738900
      4 C8          19.8730    17.8970    14.8240 cd         1 WE7       0.576900
      5 N1          17.4840    14.1640    14.5930 nd         1 WE7      -0.811000
      6 N3          19.8540    14.5560    14.0140 na         1 WE7      -0.151500
      7 CAE         22.9080    15.3960    12.2570 ca         1 WE7       0.155500
      8 CAF         23.3750    16.0240    11.0900 ca         1 WE7      -0.103000
      9 CAA         22.6390    15.9460     9.8980 ca         1 WE7      -0.078000
     10 CAB         21.4370    15.2240     9.8730 ca         1 WE7      -0.103000
     11 CAC         20.9620    14.5940    11.0350 ca         1 WE7       0.155500
     12 ClAJ        19.4620    13.6720    10.9090 cl         1 WE7      -0.194500
     13 CAD         21.6820    14.6820    12.2520 ca         1 WE7      -0.088300
     14 CAG         21.1470    14.0160    13.5300 c3         1 WE7       0.124900
     15 C2          18.6960    13.7410    14.1440 cc         1 WE7       0.600400
     16 N6          16.1420    15.8000    15.3600 nv         1 WE7      -1.037900
     17 N7          18.5830    17.6410    15.1360 nc         1 WE7      -0.587100
     18 N9          20.5920    16.7720    14.3690 nd         1 WE7      -0.411300
     19 CAT         20.4730    19.2460    15.0040 ca         1 WE7      -0.078900
     20 CAU         20.0050    20.0500    16.0710 ca         1 WE7      -0.083000
     21 CAV         20.5390    21.3270    16.3050 ca         1 WE7      -0.128000
     22 CAW         21.5470    21.8270    15.4730 ca         1 WE7      -0.106000
     23 CAX         22.0140    21.0530    14.4020 ca         1 WE7      -0.127000
     24 CAY         21.4870    19.7690    14.1500 ca         1 WE7      -0.040300
     25 CAZ         22.0120    19.0120    12.9320 c3         1 WE7      -0.042800
     26 H1          24.3130    16.5720    11.1110 ha         1 WE7       0.136500
     27 H2          23.0050    16.4330     8.9960 ha         1 WE7       0.126000
     28 H3          20.8710    15.1490     8.9480 ha         1 WE7       0.136500
     29 H4          21.0320    12.9430    13.3330 h1         1 WE7       0.078700
     30 H5          21.8640    14.0960    14.3530 h1         1 WE7       0.078700
     31 H6          18.8200    12.7030    13.8600 h5         1 WE7       0.048100
     32 H7          15.6040    15.0080    15.6850 hn         1 WE7       0.514000
     33 H8          16.0900    16.6390    15.9240 hn         1 WE7       0.514000
     34 H9          19.2290    19.6780    16.7360 ha         1 WE7       0.122000
     35 H10         20.1710    21.9270    17.1350 ha         1 WE7       0.108000
     36 H11         21.9630    22.8160    15.6530 ha         1 WE7       0.107000
     37 H12         22.7890    21.4590    13.7560 ha         1 WE7       0.105000
     38 H13         21.1990    18.5470    12.3620 hc         1 WE7       0.043700
     39 H14         22.5420    19.6760    12.2390 hc         1 WE7       0.043700
     40 H15         22.7160    18.2290    13.2330 hc         1 WE7       0.043700
     41 ClAI        23.9120    15.5270    13.7050 cl         1 WE7      -0.194500
@<TRIPOS>BOND
     1     1     2 1   
     2     1     6 1   
     3     1    18 2   
     4     2     3 2   
     5     2    17 1   
     6     3     5 1   
     7     3    16 1   
     8     4    17 2   
     9     4    18 1   
    10     4    19 1   
    11     5    15 2   
    12     6    14 1   
    13     6    15 1   
    14     7     8 ar  
    15     7    13 ar  
    16     7    41 1   
    17     8     9 ar  
    18     8    26 1   
    19     9    10 ar  
    20     9    27 1   
    21    10    11 ar  
    22    10    28 1   
    23    11    12 1   
    24    11    13 ar  
    25    13    14 1   
    26    14    29 1   
    27    14    30 1   
    28    15    31 1   
    29    16    32 1   
    30    16    33 1   
    31    19    20 ar  
    32    19    24 ar  
    33    20    21 ar  
    34    20    34 1   
    35    21    22 ar  
    36    21    35 1   
    37    22    23 ar  
    38    22    36 1   
    39    23    24 ar  
    40    23    37 1   
    41    24    25 1   
    42    25    38 1   
    43    25    39 1   
    44    25    40 1   
@<TRIPOS>SUBSTRUCTURE
     1 WE7         1 TEMP              0 ****  ****    0 ROOT
