@<TRIPOS>MOLECULE
WE9
   43    46     1     0     0
SMALL
abcg2


@<TRIPOS>ATOM
      1 C10        120.7180   120.3510   102.6830 ca         1 WE9      -0.155000
      2 C11        120.8130   119.8890   103.9860 ca         1 WE9      -0.069000
      3 C12        121.7460   118.9160   104.3200 ca         1 WE9      -0.130000
      4 C13        122.6230   118.4520   103.3530 ca         1 WE9      -0.070000
      5 C14        122.5750   118.9490   102.0520 ca         1 WE9      -0.229500
      6 C15        123.5310   118.4880   101.0130 cc         1 WE9       0.537400
      7 C18        127.2070   118.3270   100.6730 c6         1 WE9       0.061600
      8 C20        126.8190   120.4700    99.5770 c3         1 WE9       0.073900
      9 C22        126.4550   120.2370   101.9840 c6         1 WE9       0.061600
     10 C23        125.4590   119.1780   102.4420 c6         1 WE9       0.209300
     11 N24        123.1810   118.0090    99.8690 nd         1 WE9      -0.490000
     12 C02        120.2380   117.0790    97.9210 ca         1 WE9       0.124000
     13 C03        119.4140   118.1840    98.0500 ca         1 WE9      -0.104000
     14 C04        119.8300   119.2230    98.8690 ca         1 WE9      -0.126000
     15 C05        121.4620   117.0160    98.5590 ca         1 WE9      -0.095000
     16 C06        121.8960   118.0670    99.3730 ca         1 WE9       0.282000
     17 C07        121.0510   119.1810    99.5290 ca         1 WE9      -0.071200
     18 C09        121.5850   119.8690   101.7070 ca         1 WE9       0.013800
     19 C17        125.7900   117.8570   100.4060 c6         1 WE9       0.209300
     20 N08        121.4710   120.2460   100.3560 na         1 WE9      -0.228600
     21 N16        124.8520   118.4880   101.3230 nh         1 WE9      -0.809300
     22 N19        127.3110   119.8080   100.8150 n4         1 WE9      -0.119000
     23 O21        128.6040   120.1540   101.0140 o          1 WE9      -0.659000
     24 CL01       119.7350   115.7500    96.9210 cl         1 WE9      -0.204000
     25 H1         119.9600   121.0760   102.4140 ha         1 WE9       0.120000
     26 H2         120.1360   120.2730   104.7390 ha         1 WE9       0.119000
     27 H3         121.7980   118.5280   105.3280 ha         1 WE9       0.123000
     28 H4         123.3620   117.7040   103.6140 ha         1 WE9       0.122000
     29 H6         127.8530   118.0370    99.8460 hx         1 WE9       0.088700
     30 H7         126.9990   121.5360    99.6890 hx         1 WE9       0.068367
     31 H8         127.3910   120.0880    98.7350 hx         1 WE9       0.068367
     32 H9         125.7560   120.3030    99.4120 hx         1 WE9       0.068367
     33 H10        127.1440   120.4570   102.7940 hx         1 WE9       0.088700
     34 H11        125.9410   121.1560   101.7050 hx         1 WE9       0.088700
     35 H12        124.7060   119.6850   103.0380 h1         1 WE9       0.067700
     36 H13        125.9460   118.4570   103.1030 h1         1 WE9       0.067700
     37 H14        118.4630   118.2370    97.5370 ha         1 WE9       0.131000
     38 H15        119.1880   120.0880    98.9950 ha         1 WE9       0.113000
     39 H16        122.1150   116.1630    98.4250 ha         1 WE9       0.141000
     40 H17        125.5010   118.0770    99.3790 h1         1 WE9       0.067700
     41 H18        125.7570   116.7680   100.5100 h1         1 WE9       0.067700
     42 H19        120.8850   121.0620   100.2410 hn         1 WE9       0.288000
     43 H5         127.6230   117.9040   101.5870 hx         1 WE9       0.088700
@<TRIPOS>BOND
     1     1     2 ar  
     2     1    18 ar  
     3     1    25 1   
     4     2     3 ar  
     5     2    26 1   
     6     3     4 ar  
     7     3    27 1   
     8     4     5 ar  
     9     4    28 1   
    10     5     6 1   
    11     5    18 ar  
    12     6    11 2   
    13     6    21 1   
    14     7    19 1   
    15     7    22 1   
    16     7    29 1   
    17     7    43 1   
    18     8    22 1   
    19     8    30 1   
    20     8    31 1   
    21     8    32 1   
    22     9    10 1   
    23     9    22 1   
    24     9    33 1   
    25     9    34 1   
    26    10    21 1   
    27    10    35 1   
    28    10    36 1   
    29    11    16 1   
    30    12    13 ar  
    31    12    15 ar  
    32    12    24 1   
    33    13    14 ar  
    34    13    37 1   
    35    14    17 ar  
    36    14    38 1   
    37    15    16 ar  
    38    15    39 1   
    39    16    17 ar  
    40    17    20 1   
    41    18    20 1   
    42    19    21 1   
    43    19    40 1   
    44    19    41 1   
    45    20    42 1   
    46    22    23 1   
@<TRIPOS>SUBSTRUCTURE
     1 WE9         1 TEMP              0 ****  ****    0 ROOT
