@<TRIPOS>MOLECULE
WE9
   43    46     1     0     0
SMALL
No Charge or Current Charge


@<TRIPOS>ATOM
      1 C10        120.4760   119.9600   103.0270 ca         1 WE9      -0.155000
      2 C11        120.8270   119.4720   104.2950 ca         1 WE9      -0.069000
      3 C12        121.9790   118.6840   104.4390 ca         1 WE9      -0.130000
      4 C13        122.7810   118.3980   103.3210 ca         1 WE9      -0.070000
      5 C14        122.4460   118.9020   102.0410 ca         1 WE9      -0.229500
      6 C15        123.3150   118.6260   100.8800 cc         1 WE9       0.537400
      7 C18        127.1260   118.1990   100.8990 c6         1 WE9       0.061600
      8 C20        128.2540   120.1110    99.6950 c3         1 WE9       0.073900
      9 C22        126.3930   120.5970   101.3170 c6         1 WE9       0.061600
     10 C23        125.1950   119.8830   101.9880 c6         1 WE9       0.209300
     11 N24        122.9630   118.0600    99.7300 nd         1 WE9      -0.490000
     12 C02        119.9530   117.2140    97.7840 ca         1 WE9       0.124000
     13 C03        118.9980   118.1420    98.2150 ca         1 WE9      -0.104000
     14 C04        119.3450   119.0900    99.1870 ca         1 WE9      -0.126000
     15 C05        121.2440   117.2270    98.3280 ca         1 WE9      -0.095000
     16 C06        121.6120   118.1440    99.3330 ca         1 WE9       0.282000
     17 C07        120.6400   119.1070    99.7430 ca         1 WE9      -0.071200
     18 C09        121.2800   119.6670   101.9120 ca         1 WE9       0.013800
     19 C17        125.7020   118.0450   100.3090 c6         1 WE9       0.209300
     20 N08        120.9070   120.1040   100.6660 na         1 WE9      -0.228600
     21 N16        124.6720   118.7620   101.1330 nh         1 WE9      -0.809300
     22 N19        127.6100   119.6740   101.0140 n4         1 WE9      -0.119000
     23 O21        128.5440   119.7730   102.0350 o          1 WE9      -0.659000
     24 Cl01       119.5330   116.0360    96.5470 cl         1 WE9      -0.204000
     25 H1         119.5730   120.5540   102.9100 ha         1 WE9       0.120000
     26 H2         120.2040   119.6940   105.1590 ha         1 WE9       0.119000
     27 H3         122.2520   118.2940   105.4170 ha         1 WE9       0.123000
     28 H4         123.6690   117.7820   103.4500 ha         1 WE9       0.122000
     29 H6         127.8720   117.6580   100.3110 hx         1 WE9       0.088700
     30 H7         128.5860   121.1460    99.7900 hx         1 WE9       0.068367
     31 H8         129.1070   119.4640    99.4850 hx         1 WE9       0.068367
     32 H9         127.5160   120.0280    98.8950 hx         1 WE9       0.068367
     33 H10        126.7630   121.4260   101.9270 hx         1 WE9       0.088700
     34 H11        126.0720   121.0060   100.3560 hx         1 WE9       0.088700
     35 H12        124.4110   120.6320   102.1740 h1         1 WE9       0.067700
     36 H13        125.5130   119.4970   102.9680 h1         1 WE9       0.067700
     37 H14        117.9980   118.1330    97.7890 ha         1 WE9       0.131000
     38 H15        118.6040   119.8200    99.5070 ha         1 WE9       0.113000
     39 H16        121.9730   116.5060    97.9710 ha         1 WE9       0.141000
     40 H17        125.7000   118.4290    99.2780 h1         1 WE9       0.067700
     41 H18        125.4630   116.9720   100.2560 h1         1 WE9       0.067700
     42 H19        120.6790   121.0740   100.4890 hn         1 WE9       0.288000
     43 H5         127.1420   117.7970   101.9140 hx         1 WE9       0.088700
@<TRIPOS>BOND
     1     1     2 ar  
     2     1    18 ar  
     3     1    25 1   
     4     2     3 ar  
     5     2    26 1   
     6     3     4 ar  
     7     3    27 1   
     8     4     5 ar  
     9     4    28 1   
    10     5     6 1   
    11     5    18 ar  
    12     6    11 2   
    13     6    21 1   
    14     7    19 1   
    15     7    22 1   
    16     7    29 1   
    17     7    43 1   
    18     8    22 1   
    19     8    30 1   
    20     8    31 1   
    21     8    32 1   
    22     9    10 1   
    23     9    22 1   
    24     9    33 1   
    25     9    34 1   
    26    10    21 1   
    27    10    35 1   
    28    10    36 1   
    29    11    16 1   
    30    12    13 ar  
    31    12    15 ar  
    32    12    24 1   
    33    13    14 ar  
    34    13    37 1   
    35    14    17 ar  
    36    14    38 1   
    37    15    16 ar  
    38    15    39 1   
    39    16    17 ar  
    40    17    20 1   
    41    18    20 1   
    42    19    21 1   
    43    19    40 1   
    44    19    41 1   
    45    20    42 1   
    46    22    23 1   
@<TRIPOS>SUBSTRUCTURE
     1 WE9         1 TEMP              0 ****  ****    0 ROOT
