@<TRIPOS>MOLECULE
WEA
   34    35     1     0     0
SMALL
No Charge or Current Charge


@<TRIPOS>ATOM
      1 C01          7.8490     8.5890    17.7080 c6         1 WEA      -0.078400
      2 C02          7.1320     7.8950    18.8920 c6         1 WEA      -0.069400
      3 C04          6.5420     5.8820    17.3870 c6         1 WEA      -0.041700
      4 C05          7.3060     6.5800    16.2060 c6         1 WEA      -0.182700
      5 C06          7.2760     8.1320    16.3430 c6         1 WEA      -0.055400
      6 C07          6.8760     6.0960    14.7950 c          1 WEA       0.705000
      7 O08          7.6830     5.4450    14.1480 o          1 WEA      -0.734500
      8 C10          4.9890     6.0750    17.3440 c3         1 WEA       0.165600
      9 C15          2.5400     4.6960    19.7940 ca         1 WEA      -0.177000
     10 C16          1.1630     4.6730    20.0750 ca         1 WEA      -0.081000
     11 C17          0.2660     5.3510    19.2330 ca         1 WEA      -0.172000
     12 C18          0.7440     6.0510    18.1130 ca         1 WEA      -0.081000
     13 C19          2.1220     6.0740    17.8310 ca         1 WEA      -0.177000
     14 C03          7.1640     6.3520    18.7390 c6         1 WEA      -0.071400
     15 O09          5.7890     6.4420    14.3580 o          1 WEA      -0.734500
     16 O13          4.3880     5.3800    18.4530 os         1 WEA      -0.364100
     17 C14          3.0270     5.3930    18.6760 ca         1 WEA       0.167100
     18 H21          7.7570     9.6790    17.8050 hc         1 WEA       0.018200
     19 H20          8.9240     8.3630    17.7480 hc         1 WEA       0.018200
     20 H22          7.6150     8.1830    19.8360 hc         1 WEA       0.020700
     21 H23          6.0940     8.2470    18.9580 hc         1 WEA       0.020700
     22 H12          6.7020     4.7990    17.2980 hc         1 WEA       0.073700
     23 H11          8.3530     6.2630    16.3130 hc         1 WEA       0.036700
     24 H27          6.2500     8.5080    16.2270 hc         1 WEA       0.041700
     25 H26          7.8620     8.5860    15.5330 hc         1 WEA       0.041700
     26 H29          4.7500     7.1450    17.3850 h1         1 WEA       0.051200
     27 H30          4.5990     5.6690    16.4040 h1         1 WEA       0.051200
     28 H33         -0.8000     5.3340    19.4490 ha         1 WEA       0.099000
     29 H34          0.0470     6.5750    17.4620 ha         1 WEA       0.099000
     30 H35          2.4660     6.6220    16.9590 ha         1 WEA       0.126000
     31 H25          8.2060     6.0070    18.7980 hc         1 WEA       0.029200
     32 H24          6.6500     5.8830    19.5890 hc         1 WEA       0.029200
     33 H31          3.2350     4.1720    20.4450 ha         1 WEA       0.126000
     34 H32          0.7930     4.1310    20.9430 ha         1 WEA       0.099000
@<TRIPOS>BOND
     1     1     2 1   
     2     1     5 1   
     3     1    18 1   
     4     1    19 1   
     5     2    14 1   
     6     2    20 1   
     7     2    21 1   
     8     3     4 1   
     9     3     8 1   
    10     3    14 1   
    11     3    22 1   
    12     4     5 1   
    13     4     6 1   
    14     4    23 1   
    15     5    24 1   
    16     5    25 1   
    17     6     7 1   
    18     6    15 1   
    19     8    16 1   
    20     8    26 1   
    21     8    27 1   
    22     9    10 ar  
    23     9    17 ar  
    24     9    33 1   
    25    10    11 ar  
    26    10    34 1   
    27    11    12 ar  
    28    11    28 1   
    29    12    13 ar  
    30    12    29 1   
    31    13    17 ar  
    32    13    30 1   
    33    14    31 1   
    34    14    32 1   
    35    16    17 1   
@<TRIPOS>SUBSTRUCTURE
     1 WEA         1 TEMP              0 ****  ****    0 ROOT
