@<TRIPOS>MOLECULE
WEA
   34    35     1     0     0
SMALL
abcg2


@<TRIPOS>ATOM
      1 C01          7.8350     8.5940    17.6780 c6         1 WEA      -0.078400
      2 C02          7.1560     7.9440    18.8840 c6         1 WEA      -0.069400
      3 C04          6.5370     5.9230    17.4490 c6         1 WEA      -0.041700
      4 C05          7.2240     6.6020    16.2410 c6         1 WEA      -0.182700
      5 C06          7.2090     8.1280    16.3620 c6         1 WEA      -0.055400
      6 C07          6.6700     6.0590    14.9020 c          1 WEA       0.705000
      7 O08          6.8060     4.8200    14.7090 o          1 WEA      -0.734500
      8 C10          5.0280     6.1190    17.4070 c3         1 WEA       0.165600
      9 C15          2.5970     4.6180    19.6970 ca         1 WEA      -0.177000
     10 C16          1.2330     4.5900    19.9460 ca         1 WEA      -0.081000
     11 C17          0.3510     5.3140    19.1440 ca         1 WEA      -0.172000
     12 C18          0.8560     6.0640    18.0910 ca         1 WEA      -0.081000
     13 C19          2.2250     6.1030    17.8270 ca         1 WEA      -0.177000
     14 C03          7.1590     6.4180    18.7640 c6         1 WEA      -0.071400
     15 O09          6.1300     6.8670    14.1040 o          1 WEA      -0.734500
     16 O13          4.4490     5.3420    18.4650 os         1 WEA      -0.364100
     17 C14          3.1010     5.3760    18.6340 ca         1 WEA       0.167100
     18 H21          7.7830     9.6830    17.7560 hc         1 WEA       0.018200
     19 H20          8.8990     8.3280    17.6820 hc         1 WEA       0.018200
     20 H22          7.6590     8.2410    19.8090 hc         1 WEA       0.020700
     21 H23          6.1270     8.3090    18.9620 hc         1 WEA       0.020700
     22 H12          6.7150     4.8490    17.3630 hc         1 WEA       0.073700
     23 H11          8.2700     6.2770    16.2770 hc         1 WEA       0.036700
     24 H27          6.1820     8.4960    16.2920 hc         1 WEA       0.041700
     25 H26          7.7450     8.5610    15.5150 hc         1 WEA       0.041700
     26 H29          4.7470     7.1660    17.5400 h1         1 WEA       0.051200
     27 H30          4.6260     5.7770    16.4500 h1         1 WEA       0.051200
     28 H33         -0.7130     5.2900    19.3400 ha         1 WEA       0.099000
     29 H34          0.1840     6.6320    17.4580 ha         1 WEA       0.099000
     30 H35          2.5920     6.6920    16.9990 ha         1 WEA       0.126000
     31 H25          8.1940     6.0640    18.8030 hc         1 WEA       0.029200
     32 H24          6.6390     5.9680    19.6120 hc         1 WEA       0.029200
     33 H31          3.2890     4.0600    20.3140 ha         1 WEA       0.126000
     34 H32          0.8570     3.9990    20.7720 ha         1 WEA       0.099000
@<TRIPOS>BOND
     1     1     2 1   
     2     1     5 1   
     3     1    18 1   
     4     1    19 1   
     5     2    14 1   
     6     2    20 1   
     7     2    21 1   
     8     3     4 1   
     9     3     8 1   
    10     3    14 1   
    11     3    22 1   
    12     4     5 1   
    13     4     6 1   
    14     4    23 1   
    15     5    24 1   
    16     5    25 1   
    17     6     7 1   
    18     6    15 1   
    19     8    16 1   
    20     8    26 1   
    21     8    27 1   
    22     9    10 ar  
    23     9    17 ar  
    24     9    33 1   
    25    10    11 ar  
    26    10    34 1   
    27    11    12 ar  
    28    11    28 1   
    29    12    13 ar  
    30    12    29 1   
    31    13    17 ar  
    32    13    30 1   
    33    14    31 1   
    34    14    32 1   
    35    16    17 1   
@<TRIPOS>SUBSTRUCTURE
     1 WEA         1 TEMP              0 ****  ****    0 ROOT
