@<TRIPOS>MOLECULE
WEB
   24    24     1     0     0
SMALL
abcg2


@<TRIPOS>ATOM
      1 C1         -33.8620   -16.1650   -13.1480 c3         1 WEB       0.177600
      2 O1         -35.2540   -15.9760   -12.9280 oh         1 WEB      -0.725000
      3 C2         -33.0900   -15.9000   -11.8630 c6         1 WEB       0.404000
      4 O2         -31.7390   -16.1430   -12.1720 oh         1 WEB      -0.731000
      5 C3         -33.3130   -14.4760   -11.3190 c6         1 WEB       0.116300
      6 O3         -32.8340   -13.5430   -12.2780 oh         1 WEB      -0.696000
      7 C4         -32.6460   -14.2950    -9.9580 c6         1 WEB       0.136300
      8 O4         -31.2240   -14.3850   -10.1270 oh         1 WEB      -0.728000
      9 C5         -33.1470   -15.3700    -9.0010 c6         1 WEB       0.096300
     10 O5         -32.3960   -15.2290    -7.7980 oh         1 WEB      -0.734000
     11 C6         -32.9560   -16.7530    -9.6190 c6         1 WEB       0.123600
     12 O6         -33.5800   -16.8290   -10.8990 os         1 WEB      -0.453000
     13 H1         -33.6440   -17.1930   -13.4550 h1         1 WEB       0.053200
     14 H2         -33.4870   -15.4800   -13.9100 h1         1 WEB       0.053200
     15 H3         -35.6900   -15.9390   -13.7870 ho         1 WEB       0.506000
     16 H4         -31.1940   -15.6270   -11.5500 ho         1 WEB       0.544000
     17 H5         -34.3910   -14.3630   -11.1780 h1         1 WEB       0.069700
     18 H6         -33.1540   -12.6660   -12.0320 ho         1 WEB       0.507000
     19 H7         -32.8980   -13.3070    -9.5580 h1         1 WEB       0.054700
     20 H8         -30.8400   -14.5630    -9.2570 ho         1 WEB       0.528000
     21 H9         -34.2120   -15.1980    -8.8160 h1         1 WEB       0.058700
     22 H10        -32.6760   -15.9050    -7.1670 ho         1 WEB       0.518000
     23 H11        -33.4310   -17.5160    -9.0040 h1         1 WEB       0.059200
     24 H12        -31.8890   -16.9830    -9.6910 h1         1 WEB       0.059200
@<TRIPOS>BOND
     1     1     2 1   
     2     1     3 1   
     3     1    13 1   
     4     1    14 1   
     5     2    15 1   
     6     3     4 1   
     7     3     5 1   
     8     3    12 1   
     9     4    16 1   
    10     5     6 1   
    11     5     7 1   
    12     5    17 1   
    13     6    18 1   
    14     7     8 1   
    15     7     9 1   
    16     7    19 1   
    17     8    20 1   
    18     9    10 1   
    19     9    11 1   
    20     9    21 1   
    21    10    22 1   
    22    11    12 1   
    23    11    23 1   
    24    11    24 1   
@<TRIPOS>SUBSTRUCTURE
     1 WEB         1 TEMP              0 ****  ****    0 ROOT
