@<TRIPOS>MOLECULE
WEB
   24    24     1     0     0
SMALL
No Charge or Current Charge


@<TRIPOS>ATOM
      1 C1         -33.9350   -16.1560   -13.2260 c3         1 WEB       0.177600
      2 O1         -35.3800   -16.1370   -13.0900 oh         1 WEB      -0.725000
      3 C2         -33.1390   -15.8670   -11.8910 c6         1 WEB       0.404000
      4 O2         -31.7360   -16.0290   -12.1210 oh         1 WEB      -0.731000
      5 C3         -33.4350   -14.4230   -11.3270 c6         1 WEB       0.116300
      6 O3         -32.9960   -13.3660   -12.2160 oh         1 WEB      -0.696000
      7 C4         -32.7260   -14.2450    -9.9520 c6         1 WEB       0.136300
      8 O4         -31.2950   -14.2310   -10.1370 oh         1 WEB      -0.728000
      9 C5         -33.1160   -15.3860    -8.9670 c6         1 WEB       0.096300
     10 O5         -32.3530   -15.2530    -7.7480 oh         1 WEB      -0.734000
     11 C6         -32.8830   -16.7790    -9.6250 c6         1 WEB       0.123600
     12 O6         -33.5410   -16.8600   -10.9150 os         1 WEB      -0.453000
     13 H1         -33.6080   -17.1370   -13.5970 h1         1 WEB       0.053200
     14 H2         -33.6190   -15.4140   -13.9720 h1         1 WEB       0.053200
     15 H3         -35.7540   -16.3890   -13.9670 ho         1 WEB       0.506000
     16 H4         -31.3430   -15.4180   -11.4400 ho         1 WEB       0.544000
     17 H5         -34.5210   -14.3440   -11.1650 h1         1 WEB       0.069700
     18 H6         -32.0900   -13.1300   -11.9040 ho         1 WEB       0.507000
     19 H7         -33.0570   -13.2910    -9.5140 h1         1 WEB       0.054700
     20 H8         -30.9380   -14.3030    -9.2140 ho         1 WEB       0.528000
     21 H9         -34.1920   -15.2900    -8.7490 h1         1 WEB       0.058700
     22 H10        -32.7900   -15.8130    -7.0610 ho         1 WEB       0.518000
     23 H11        -33.2930   -17.5660    -8.9760 h1         1 WEB       0.059200
     24 H12        -31.8070   -16.9770    -9.7420 h1         1 WEB       0.059200
@<TRIPOS>BOND
     1     1     2 1   
     2     1     3 1   
     3     1    13 1   
     4     1    14 1   
     5     2    15 1   
     6     3     4 1   
     7     3     5 1   
     8     3    12 1   
     9     4    16 1   
    10     5     6 1   
    11     5     7 1   
    12     5    17 1   
    13     6    18 1   
    14     7     8 1   
    15     7     9 1   
    16     7    19 1   
    17     8    20 1   
    18     9    10 1   
    19     9    11 1   
    20     9    21 1   
    21    10    22 1   
    22    11    12 1   
    23    11    23 1   
    24    11    24 1   
@<TRIPOS>SUBSTRUCTURE
     1 WEB         1 TEMP              0 ****  ****    0 ROOT
