@<TRIPOS>MOLECULE
WEC
   42    45     1     0     0
SMALL
No Charge or Current Charge


@<TRIPOS>ATOM
      1 C01        128.2800   130.6670   154.8480 c3         1 WEC       0.151100
      2 C03        127.8070   133.0980   154.7600 c6         1 WEC       0.130300
      3 C04        127.3910   134.3040   153.8560 c6         1 WEC       0.214300
      4 C06        124.8770   134.5220   153.6480 cc         1 WEC       0.512400
      5 C08        123.6220   135.3310   155.4700 ca         1 WEC       0.264000
      6 C09        122.3660   134.7100   155.1920 ca         1 WEC      -0.063200
      7 C10        121.2280   135.0380   155.9550 ca         1 WEC      -0.138000
      8 C11        121.3100   135.9650   157.0030 ca         1 WEC      -0.108000
      9 C12        122.5400   136.5590   157.3080 ca         1 WEC      -0.113000
     10 C13        123.6800   136.2320   156.5540 ca         1 WEC      -0.095000
     11 C15        122.4970   134.1570   152.9320 ca         1 WEC       0.015800
     12 C16        121.4900   134.1720   151.9510 ca         1 WEC      -0.163000
     13 C17        121.7780   134.6210   150.6530 ca         1 WEC      -0.072000
     14 C18        123.0740   135.0590   150.3440 ca         1 WEC      -0.139000
     15 C19        124.0780   135.0370   151.3270 ca         1 WEC      -0.063000
     16 C20        123.8020   134.5740   152.6360 ca         1 WEC      -0.223500
     17 C21        126.1290   132.7600   152.3920 c6         1 WEC       0.214300
     18 C22        126.5620   131.5640   153.3030 c6         1 WEC       0.130300
     19 N02        127.8620   131.8070   154.0040 n3         1 WEC      -0.719600
     20 N05        126.0860   134.0500   153.1570 nh         1 WEC      -0.786300
     21 N07        124.8660   135.0720   154.8590 nd         1 WEC      -0.476000
     22 N14        122.2000   133.7520   154.2080 na         1 WEC      -0.228600
     23 H1         129.2600   130.8600   155.3020 h1         1 WEC       0.032033
     24 H2         127.5550   130.4890   155.6540 h1         1 WEC       0.032033
     25 H3         128.3590   129.7500   154.2490 h1         1 WEC       0.032033
     26 H4         127.0880   133.0210   155.5890 h1         1 WEC       0.043950
     27 H5         128.7870   133.3190   155.2070 h1         1 WEC       0.043950
     28 H6         128.1820   134.4620   153.1080 h1         1 WEC       0.065450
     29 H7         127.3600   135.2200   154.4640 h1         1 WEC       0.065450
     30 H8         120.2710   134.5670   155.7370 ha         1 WEC       0.107000
     31 H9         120.4240   136.2120   157.5860 ha         1 WEC       0.113000
     32 H10        122.6150   137.2680   158.1300 ha         1 WEC       0.114000
     33 H11        124.6300   136.6930   156.8110 ha         1 WEC       0.124000
     34 H12        120.4820   133.8460   152.1970 ha         1 WEC       0.116000
     35 H13        120.9990   134.6370   149.8940 ha         1 WEC       0.116000
     36 H14        123.3030   135.4140   149.3410 ha         1 WEC       0.119000
     37 H15        125.0790   135.3800   151.0680 ha         1 WEC       0.127000
     38 H16        126.8430   132.8450   151.5590 h1         1 WEC       0.065450
     39 H17        125.1530   132.5180   151.9460 h1         1 WEC       0.065450
     40 H18        125.7640   131.3860   154.0400 h1         1 WEC       0.043950
     41 H19        126.6280   130.6590   152.6810 h1         1 WEC       0.043950
     42 H21        121.7280   132.8740   154.3890 hn         1 WEC       0.283000
@<TRIPOS>BOND
     1     1    19 1   
     2     1    23 1   
     3     1    24 1   
     4     1    25 1   
     5     2     3 1   
     6     2    19 1   
     7     2    26 1   
     8     2    27 1   
     9     3    20 1   
    10     3    28 1   
    11     3    29 1   
    12     4    16 1   
    13     4    20 1   
    14     4    21 2   
    15     5     6 ar  
    16     5    10 ar  
    17     5    21 1   
    18     6     7 ar  
    19     6    22 1   
    20     7     8 ar  
    21     7    30 1   
    22     8     9 ar  
    23     8    31 1   
    24     9    10 ar  
    25     9    32 1   
    26    10    33 1   
    27    11    12 ar  
    28    11    16 ar  
    29    11    22 1   
    30    12    13 ar  
    31    12    34 1   
    32    13    14 ar  
    33    13    35 1   
    34    14    15 ar  
    35    14    36 1   
    36    15    16 ar  
    37    15    37 1   
    38    17    18 1   
    39    17    20 1   
    40    17    38 1   
    41    17    39 1   
    42    18    19 1   
    43    18    40 1   
    44    18    41 1   
    45    22    42 1   
@<TRIPOS>SUBSTRUCTURE
     1 WEC         1 TEMP              0 ****  ****    0 ROOT
