@<TRIPOS>MOLECULE
WEC
   42    45     1     0     0
SMALL
abcg2


@<TRIPOS>ATOM
      1 C01        128.1900   130.6250   154.5690 c3         1 WEC       0.151100
      2 C03        127.6400   132.9510   154.8680 c6         1 WEC       0.130300
      3 C04        127.3240   134.2530   154.1440 c6         1 WEC       0.214300
      4 C06        124.9200   134.5030   153.7230 cc         1 WEC       0.512400
      5 C08        123.6090   135.3840   155.4980 ca         1 WEC       0.264000
      6 C09        122.3740   134.7280   155.3170 ca         1 WEC      -0.063200
      7 C10        121.2600   135.1130   156.0600 ca         1 WEC      -0.138000
      8 C11        121.3400   136.1470   156.9860 ca         1 WEC      -0.108000
      9 C12        122.5460   136.8200   157.1570 ca         1 WEC      -0.113000
     10 C13        123.6620   136.4340   156.4260 ca         1 WEC      -0.095000
     11 C15        122.5540   134.0120   153.0470 ca         1 WEC       0.015800
     12 C16        121.5700   133.9080   152.0630 ca         1 WEC      -0.163000
     13 C17        121.8350   134.3060   150.7600 ca         1 WEC      -0.072000
     14 C18        123.0780   134.8420   150.4310 ca         1 WEC      -0.139000
     15 C19        124.0640   134.9230   151.4040 ca         1 WEC      -0.063000
     16 C20        123.8290   134.4830   152.7090 ca         1 WEC      -0.223500
     17 C21        126.3350   133.0100   152.3250 c6         1 WEC       0.214300
     18 C22        126.6650   131.7140   153.0590 c6         1 WEC       0.130300
     19 N02        127.8430   131.8720   153.9050 n3         1 WEC      -0.719600
     20 N05        126.1580   134.1090   153.2780 nh         1 WEC      -0.786300
     21 N07        124.8010   134.9510   154.9290 nd         1 WEC      -0.476000
     22 N14        122.2780   133.6560   154.3870 na         1 WEC      -0.228600
     23 H1         129.0930   130.7650   155.1650 h1         1 WEC       0.032033
     24 H2         127.3880   130.2680   155.2370 h1         1 WEC       0.032033
     25 H3         128.3810   129.8510   153.8230 h1         1 WEC       0.032033
     26 H4         126.8180   132.7120   155.5640 h1         1 WEC       0.043950
     27 H5         128.5510   133.0720   155.4580 h1         1 WEC       0.043950
     28 H6         128.1720   134.5240   153.5080 h1         1 WEC       0.065450
     29 H7         127.1410   135.0520   154.8560 h1         1 WEC       0.065450
     30 H8         120.3230   134.5900   155.9040 ha         1 WEC       0.107000
     31 H9         120.4660   136.4250   157.5600 ha         1 WEC       0.113000
     32 H10        122.6230   137.6330   157.8690 ha         1 WEC       0.114000
     33 H11        124.6150   136.9250   156.5780 ha         1 WEC       0.124000
     34 H12        120.5930   133.5270   152.3330 ha         1 WEC       0.116000
     35 H13        121.0630   134.2180   150.0060 ha         1 WEC       0.116000
     36 H14        123.2800   135.1810   149.4240 ha         1 WEC       0.119000
     37 H15        125.0410   135.3120   151.1520 ha         1 WEC       0.127000
     38 H16        127.1530   133.2700   151.6490 h1         1 WEC       0.065450
     39 H17        125.4350   132.8720   151.7360 h1         1 WEC       0.065450
     40 H18        125.7860   131.4060   153.6540 h1         1 WEC       0.043950
     41 H19        126.8590   130.9280   152.3250 h1         1 WEC       0.043950
     42 H21        121.3800   133.1940   154.4640 hn         1 WEC       0.283000
@<TRIPOS>BOND
     1     1    19 1   
     2     1    23 1   
     3     1    24 1   
     4     1    25 1   
     5     2     3 1   
     6     2    19 1   
     7     2    26 1   
     8     2    27 1   
     9     3    20 1   
    10     3    28 1   
    11     3    29 1   
    12     4    16 1   
    13     4    20 1   
    14     4    21 2   
    15     5     6 ar  
    16     5    10 ar  
    17     5    21 1   
    18     6     7 ar  
    19     6    22 1   
    20     7     8 ar  
    21     7    30 1   
    22     8     9 ar  
    23     8    31 1   
    24     9    10 ar  
    25     9    32 1   
    26    10    33 1   
    27    11    12 ar  
    28    11    16 ar  
    29    11    22 1   
    30    12    13 ar  
    31    12    34 1   
    32    13    14 ar  
    33    13    35 1   
    34    14    15 ar  
    35    14    36 1   
    36    15    16 ar  
    37    15    37 1   
    38    17    18 1   
    39    17    20 1   
    40    17    38 1   
    41    17    39 1   
    42    18    19 1   
    43    18    40 1   
    44    18    41 1   
    45    22    42 1   
@<TRIPOS>SUBSTRUCTURE
     1 WEC         1 TEMP              0 ****  ****    0 ROOT
