@<TRIPOS>MOLECULE
WED
   37    38     1     0     0
SMALL
abcg2


@<TRIPOS>ATOM
      1 C10          5.0370     7.6370    21.1230 ca         1 WED      -0.043300
      2 C11          8.1350     8.3150    18.8520 c6         1 WED      -0.071400
      3 O12          5.8100     4.2950    15.3280 o          1 WED      -0.732500
      4 C15          5.9320     8.1110    22.0830 ca         1 WED      -0.113000
      5 C16          4.0550     6.2430    22.8660 ca         1 WED      -0.112000
      6 C18          5.9080     7.6690    23.3960 ca         1 WED      -0.122000
      7 C19          4.9670     6.7290    23.7900 ca         1 WED      -0.122000
      8 C1           5.7260     7.4750    17.2910 c6         1 WED       0.216000
      9 C2           5.8760     7.1280    18.7890 c6         1 WED      -0.040700
     10 C3           6.4980     8.7730    16.9910 c6         1 WED      -0.112400
     11 C6           5.1180     8.1170    19.7020 c3         1 WED      -0.029100
     12 C7           7.3600     7.0390    19.1630 c6         1 WED      -0.073400
     13 C8           7.9710     8.7210    17.3920 c6         1 WED      -0.063400
     14 O13          4.8270     4.6250    17.2950 o          1 WED      -0.732500
     15 C14          4.1010     6.6990    21.5560 ca         1 WED       0.125000
     16 CL17         2.9230     6.0710    20.4410 cl         1 WED      -0.171000
     17 H33          7.7900     9.1310    19.4930 hc         1 WED       0.019200
     18 H32          9.1930     8.1740    19.0880 hc         1 WED       0.019200
     19 H35          6.6670     8.8480    21.7810 ha         1 WED       0.109000
     20 H36          3.3110     5.5150    23.1610 ha         1 WED       0.119000
     21 H37          6.6200     8.0610    24.1100 ha         1 WED       0.101000
     22 H38          4.9340     6.3740    24.8120 ha         1 WED       0.101000
     23 H20          5.4340     6.1410    18.9330 hc         1 WED       0.122700
     24 H21          6.4170     8.9980    15.9210 hc         1 WED       0.025700
     25 H22          6.0130     9.6050    17.5120 hc         1 WED       0.025700
     26 H23          6.1970     6.7570    15.3380 hc         1 WED       0.023200
     27 H24          7.3000     6.1810    16.5340 hc         1 WED       0.023200
     28 H25          4.2520     7.9550    16.1170 ho         1 WED       0.428000
     29 H27          5.6030     9.0940    19.7030 hc         1 WED       0.053200
     30 H26          4.1130     8.2760    19.3120 hc         1 WED       0.053200
     31 H29          7.4620     6.7880    20.2220 hc         1 WED       0.043200
     32 H28          7.8160     6.2050    18.6230 hc         1 WED       0.043200
     33 H31          8.5100     8.0180    16.7510 hc         1 WED       0.028200
     34 H30          8.4280     9.6980    17.2170 hc         1 WED       0.028200
     35 C4           6.2350     6.3630    16.3610 c3         1 WED      -0.235400
     36 C9           5.5450     4.9790    16.3400 c          1 WED       0.722000
     37 O5           4.3440     7.6930    17.0390 oh         1 WED      -0.653000
@<TRIPOS>BOND
     1     1     4 ar  
     2     1    11 1   
     3     1    15 ar  
     4     2    12 1   
     5     2    13 1   
     6     2    17 1   
     7     2    18 1   
     8     3    36 1   
     9     4     6 ar  
    10     4    19 1   
    11     5     7 ar  
    12     5    15 ar  
    13     5    20 1   
    14     6     7 ar  
    15     6    21 1   
    16     7    22 1   
    17     8     9 1   
    18     8    10 1   
    19     8    35 1   
    20     8    37 1   
    21     9    11 1   
    22     9    12 1   
    23     9    23 1   
    24    10    13 1   
    25    10    24 1   
    26    10    25 1   
    27    11    29 1   
    28    11    30 1   
    29    12    31 1   
    30    12    32 1   
    31    13    33 1   
    32    13    34 1   
    33    14    36 1   
    34    15    16 1   
    35    26    35 1   
    36    27    35 1   
    37    28    37 1   
    38    35    36 1   
@<TRIPOS>SUBSTRUCTURE
     1 WED         1 TEMP              0 ****  ****    0 ROOT
