@<TRIPOS>MOLECULE
WED
   37    38     1     0     0
SMALL
No Charge or Current Charge


@<TRIPOS>ATOM
      1 C10          4.9780     7.6180    21.1060 ca         1 WED      -0.043300
      2 C11          8.1700     8.2590    18.9690 c6         1 WED      -0.071400
      3 O12          4.3730     5.2090    15.7070 o          1 WED      -0.732500
      4 C15          5.8000     8.2580    22.0580 ca         1 WED      -0.113000
      5 C16          4.0860     6.1970    22.8870 ca         1 WED      -0.112000
      6 C18          5.7700     7.8680    23.4080 ca         1 WED      -0.122000
      7 C19          4.9150     6.8370    23.8230 ca         1 WED      -0.122000
      8 C1           5.8300     7.5310    17.1830 c6         1 WED       0.216000
      9 C2           5.8690     7.1120    18.7070 c6         1 WED      -0.040700
     10 C3           6.6630     8.8380    16.9750 c6         1 WED      -0.112400
     11 C6           5.0380     8.0650    19.6440 c3         1 WED      -0.029100
     12 C7           7.3460     6.9650    19.1970 c6         1 WED      -0.073400
     13 C8           8.1220     8.7120    17.4900 c6         1 WED      -0.063400
     14 O13          5.8070     4.2200    16.9780 o          1 WED      -0.732500
     15 C14          4.1120     6.5820    21.5350 ca         1 WED       0.125000
     16 Cl17         3.0380     5.7490    20.4100 cl         1 WED      -0.171000
     17 H33          7.7960     9.0650    19.6140 hc         1 WED       0.019200
     18 H32          9.2130     8.0890    19.2680 hc         1 WED       0.019200
     19 H35          6.4690     9.0580    21.7510 ha         1 WED       0.109000
     20 H36          3.4200     5.4000    23.2090 ha         1 WED       0.119000
     21 H37          6.4120     8.3670    24.1310 ha         1 WED       0.101000
     22 H38          4.8910     6.5350    24.8680 ha         1 WED       0.101000
     23 H20          5.3900     6.1300    18.8060 hc         1 WED       0.122700
     24 H21          6.6790     9.1090    15.9100 hc         1 WED       0.025700
     25 H22          6.1760     9.6800    17.4840 hc         1 WED       0.025700
     26 H23          6.2540     6.8290    15.2080 hc         1 WED       0.023200
     27 H24          7.3650     6.1400    16.4670 hc         1 WED       0.023200
     28 H25          4.2040     6.9780    16.2990 ho         1 WED       0.428000
     29 H27          5.4370     9.0840    19.5950 hc         1 WED       0.053200
     30 H26          4.0120     8.1590    19.2720 hc         1 WED       0.053200
     31 H29          7.3740     6.6920    20.2600 hc         1 WED       0.043200
     32 H28          7.8320     6.1290    18.6790 hc         1 WED       0.043200
     33 H31          8.6840     8.0040    16.8670 hc         1 WED       0.028200
     34 H30          8.6330     9.6780    17.3860 hc         1 WED       0.028200
     35 C4           6.3330     6.4050    16.2170 c3         1 WED      -0.235400
     36 C9           5.4510     5.1550    16.2790 c          1 WED       0.722000
     37 O5           4.4860     7.7950    16.7770 oh         1 WED      -0.653000
@<TRIPOS>BOND
     1     1     4 ar  
     2     1    11 1   
     3     1    15 ar  
     4     2    12 1   
     5     2    13 1   
     6     2    17 1   
     7     2    18 1   
     8     3    36 1   
     9     4     6 ar  
    10     4    19 1   
    11     5     7 ar  
    12     5    15 ar  
    13     5    20 1   
    14     6     7 ar  
    15     6    21 1   
    16     7    22 1   
    17     8     9 1   
    18     8    10 1   
    19     8    35 1   
    20     8    37 1   
    21     9    11 1   
    22     9    12 1   
    23     9    23 1   
    24    10    13 1   
    25    10    24 1   
    26    10    25 1   
    27    11    29 1   
    28    11    30 1   
    29    12    31 1   
    30    12    32 1   
    31    13    33 1   
    32    13    34 1   
    33    14    36 1   
    34    15    16 1   
    35    26    35 1   
    36    27    35 1   
    37    28    37 1   
    38    35    36 1   
@<TRIPOS>SUBSTRUCTURE
     1 WED         1 TEMP              0 ****  ****    0 ROOT
