@<TRIPOS>MOLECULE
WEE
   39    41     1     0     0
SMALL
abcg2


@<TRIPOS>ATOM
      1 C1         -24.2860     2.1140    -1.8180 ca         1 WEE       0.376900
      2 C2         -23.2110     1.4520    -2.3770 ca         1 WEE       0.047000
      3 C3         -23.2220     0.0620    -2.4390 ca         1 WEE      -0.091000
      4 C11        -30.0200     1.2900     0.0380 ca         1 WEE      -0.130500
      5 C12        -29.5400     1.3470    -1.2700 ca         1 WEE      -0.062500
      6 C13        -28.3310     0.7640    -1.6040 ca         1 WEE      -0.118000
      7 C15        -31.2980     1.8990     0.3860 cc         1 WEE       0.559500
      8 C21        -35.0200     2.8370    -1.1850 c3         1 WEE       0.154500
      9 C23        -36.1940     3.6870    -1.6490 c3         1 WEE       0.174600
     10 C4         -24.3230    -0.5860    -1.9430 ca         1 WEE       0.117000
     11 C5         -25.3780     0.1560    -1.4040 ca         1 WEE       0.554300
     12 N6         -25.3410     1.4600    -1.3430 nb         1 WEE      -0.712000
     13 O7         -26.4260    -0.5360    -0.9260 os         1 WEE      -0.352400
     14 C8         -27.5940     0.1210    -0.6210 ca         1 WEE       0.128100
     15 C9         -28.0520     0.0540     0.6840 ca         1 WEE      -0.118000
     16 C10        -29.2680     0.6330     1.0090 ca         1 WEE      -0.062500
     17 CL14       -21.8670     2.3360    -2.9940 cl         1 WEE      -0.169000
     18 N16        -31.8800     1.8140     1.5950 nc         1 WEE      -0.378000
     19 N17        -32.9880     2.4740     1.5150 nd         1 WEE      -0.182800
     20 N18        -33.0570     2.9420     0.3020 na         1 WEE       0.243600
     21 N19        -32.0370     2.6120    -0.4450 nd         1 WEE      -0.524800
     22 N22        -35.4750     1.5710    -0.6540 n8         1 WEE      -0.990200
     23 O24        -36.8540     3.0300    -2.7010 oh         1 WEE      -0.633000
     24 F25        -24.4040    -1.9150    -1.9710 f          1 WEE      -0.148000
     25 H1         -24.3030     3.1950    -1.7490 h4         1 WEE       0.042100
     26 H2         -22.4000    -0.4970    -2.8670 ha         1 WEE       0.154000
     27 H3         -30.1140     1.8450    -2.0390 ha         1 WEE       0.135500
     28 H4         -27.9760     0.8050    -2.6260 ha         1 WEE       0.132000
     29 H5         -33.8210     4.5900    -0.6710 h1         1 WEE       0.082200
     30 H6         -34.7900     3.9630     0.6670 h1         1 WEE       0.082200
     31 H7         -34.3890     2.6270    -2.0550 h1         1 WEE       0.092700
     32 H8         -35.8160     4.6700    -1.9610 h1         1 WEE       0.016200
     33 H9         -36.8620     3.8630    -0.7930 h1         1 WEE       0.016200
     34 H10        -27.4680    -0.4530     1.4400 ha         1 WEE       0.132000
     35 H11        -29.6240     0.5770     2.0290 ha         1 WEE       0.135500
     36 H12        -34.7020     0.9370    -0.4980 hn         1 WEE       0.408000
     37 H13        -35.9380     1.7010     0.2380 hn         1 WEE       0.408000
     38 H15        -37.5820     3.5870    -2.9900 ho         1 WEE       0.443000
     39 C20        -34.1940     3.6810    -0.2010 c3         1 WEE       0.038600
@<TRIPOS>BOND
     1     1     2 ar  
     2     1    12 ar  
     3     1    25 1   
     4     2     3 ar  
     5     2    17 1   
     6     3    10 ar  
     7     3    26 1   
     8     4     5 ar  
     9     4     7 1   
    10     4    16 ar  
    11     5     6 ar  
    12     5    27 1   
    13     6    14 ar  
    14     6    28 1   
    15     7    18 1   
    16     7    21 2   
    17     8     9 1   
    18     8    22 1   
    19     8    31 1   
    20     8    39 1   
    21     9    23 1   
    22     9    32 1   
    23     9    33 1   
    24    10    11 ar  
    25    10    24 1   
    26    11    12 ar  
    27    11    13 1   
    28    13    14 1   
    29    14    15 ar  
    30    15    16 ar  
    31    15    34 1   
    32    16    35 1   
    33    18    19 2   
    34    19    20 1   
    35    20    21 1   
    36    20    39 1   
    37    22    36 1   
    38    22    37 1   
    39    23    38 1   
    40    29    39 1   
    41    30    39 1   
@<TRIPOS>SUBSTRUCTURE
     1 WEE         1 TEMP              0 ****  ****    0 ROOT
