@<TRIPOS>MOLECULE
WEE
   39    41     1     0     0
SMALL
No Charge or Current Charge


@<TRIPOS>ATOM
      1 C1         -24.0130     2.1750    -1.7610 ca         1 WEE       0.376900
      2 C2         -23.0680     1.4950    -2.5580 ca         1 WEE       0.047000
      3 C3         -23.1900     0.1050    -2.7240 ca         1 WEE      -0.091000
      4 C11        -29.9930     1.2160     0.0970 ca         1 WEE      -0.130500
      5 C12        -29.3630     1.4180    -1.1540 ca         1 WEE      -0.062500
      6 C13        -28.0940     0.8700    -1.4170 ca         1 WEE      -0.118000
      7 C15        -31.3240     1.7940     0.3670 cc         1 WEE       0.559500
      8 C21        -35.2410     2.7750    -1.1280 c3         1 WEE       0.154500
      9 C23        -36.2370     3.7330    -1.8570 c3         1 WEE       0.174600
     10 C4         -24.2580    -0.5450    -2.0850 ca         1 WEE       0.117000
     11 C5         -25.1730     0.2120    -1.3090 ca         1 WEE       0.554300
     12 N6         -25.0480     1.5550    -1.1390 nb         1 WEE      -0.712000
     13 O7         -26.2010    -0.4490    -0.6700 os         1 WEE      -0.352400
     14 C8         -27.4310     0.1200    -0.4300 ca         1 WEE       0.128100
     15 C9         -28.0510    -0.1010     0.8080 ca         1 WEE      -0.118000
     16 C10        -29.3190     0.4450     1.0740 ca         1 WEE      -0.062500
     17 Cl14       -21.7480     2.3660    -3.3350 cl         1 WEE      -0.169000
     18 N16        -31.9450     1.6050     1.5680 nc         1 WEE      -0.378000
     19 N17        -33.0830     2.2320     1.4890 nd         1 WEE      -0.182800
     20 N18        -33.1040     2.7760     0.2330 na         1 WEE       0.243600
     21 N19        -31.9920     2.5140    -0.5060 nd         1 WEE      -0.524800
     22 N22        -35.9450     1.7330    -0.3120 n8         1 WEE      -0.990200
     23 O24        -37.0860     3.0190    -2.7710 oh         1 WEE      -0.633000
     24 F25        -24.4010    -1.8860    -2.2210 f          1 WEE      -0.148000
     25 H1         -23.9370     3.2520    -1.6140 h4         1 WEE       0.042100
     26 H2         -22.4780    -0.4520    -3.3280 ha         1 WEE       0.154000
     27 H3         -29.8530     1.9990    -1.9330 ha         1 WEE       0.135500
     28 H4         -27.6330     1.0290    -2.3880 ha         1 WEE       0.132000
     29 H5         -33.8050     4.3870    -0.8830 h1         1 WEE       0.082200
     30 H6         -34.7420     4.0450     0.5770 h1         1 WEE       0.082200
     31 H7         -34.6600     2.2590    -1.9080 h1         1 WEE       0.092700
     32 H8         -35.6620     4.4920    -2.4060 h1         1 WEE       0.016200
     33 H9         -36.8450     4.2600    -1.1090 h1         1 WEE       0.016200
     34 H10        -27.5460    -0.6950     1.5650 ha         1 WEE       0.132000
     35 H11        -29.7710     0.2600     2.0470 ha         1 WEE       0.135500
     36 H12        -35.2680     1.2580     0.2980 hn         1 WEE       0.408000
     37 H13        -36.5880     2.1900     0.3460 hn         1 WEE       0.408000
     38 H15        -37.7230     3.6710    -3.1380 ho         1 WEE       0.443000
     39 C20        -34.2270     3.5800    -0.2730 c3         1 WEE       0.038600
@<TRIPOS>BOND
     1     1     2 ar  
     2     1    12 ar  
     3     1    25 1   
     4     2     3 ar  
     5     2    17 1   
     6     3    10 ar  
     7     3    26 1   
     8     4     5 ar  
     9     4     7 1   
    10     4    16 ar  
    11     5     6 ar  
    12     5    27 1   
    13     6    14 ar  
    14     6    28 1   
    15     7    18 1   
    16     7    21 2   
    17     8     9 1   
    18     8    22 1   
    19     8    31 1   
    20     8    39 1   
    21     9    23 1   
    22     9    32 1   
    23     9    33 1   
    24    10    11 ar  
    25    10    24 1   
    26    11    12 ar  
    27    11    13 1   
    28    13    14 1   
    29    14    15 ar  
    30    15    16 ar  
    31    15    34 1   
    32    16    35 1   
    33    18    19 2   
    34    19    20 1   
    35    20    21 1   
    36    20    39 1   
    37    22    36 1   
    38    22    37 1   
    39    23    38 1   
    40    29    39 1   
    41    30    39 1   
@<TRIPOS>SUBSTRUCTURE
     1 WEE         1 TEMP              0 ****  ****    0 ROOT
