@<TRIPOS>MOLECULE
WEF
   47    49     1     0     0
SMALL
abcg2


@<TRIPOS>ATOM
      1 O01          3.1190    -1.8660    -1.9020 o          1 WEF      -0.605100
      2 C02          2.4850    -1.5700    -0.8970 c          1 WEF       0.639700
      3 N03          3.0400    -1.2350     0.2740 ns         1 WEF      -0.446900
      4 C04          4.4630    -1.1610     0.4930 c3         1 WEF      -0.042300
      5 C05          4.7730     0.0190     1.4240 c3         1 WEF      -0.034100
      6 C06          4.2460     1.3190     0.8870 ca         1 WEF      -0.081300
      7 C07          3.0110     1.8250     1.2850 ca         1 WEF      -0.076500
      8 C08          2.4920     2.9920     0.7460 ca         1 WEF      -0.176500
      9 C09          3.2130     3.6900    -0.2190 ca         1 WEF       0.112100
     10 O10          2.6710     4.8220    -0.7200 oh         1 WEF      -0.548100
     11 C11          4.4520     3.2040    -0.6270 ca         1 WEF      -0.176500
     12 C12          4.9520     2.0330    -0.0760 ca         1 WEF      -0.076500
     13 C13          5.0660    -2.4860     1.0290 c          1 WEF       0.716000
     14 O14          4.2930    -3.4420     1.1980 o          1 WEF      -0.715500
     15 O15          6.2940    -2.4540     1.2360 o          1 WEF      -0.715500
     16 C16          1.0060    -1.5020    -0.9350 cc         1 WEF      -0.262600
     17 C17          0.1450    -2.2180    -1.7250 cd         1 WEF       0.335300
     18 C18          0.5030    -3.2960    -2.6920 c3         1 WEF      -0.118400
     19 N19         -1.1650    -1.8770    -1.5790 nd         1 WEF      -0.654000
     20 C20         -1.3370    -0.9220    -0.7160 cc         1 WEF       0.442900
     21 C21         -2.6400    -0.3390    -0.3990 ca         1 WEF      -0.076500
     22 C22         -3.7610    -0.7300    -1.1300 ca         1 WEF      -0.097000
     23 C23         -5.0030    -0.1780    -0.8640 ca         1 WEF      -0.066500
     24 C24         -5.1390     0.7700     0.1420 ca         1 WEF      -0.202300
     25 C25         -6.4590     1.4190     0.4190 c3         1 WEF       0.356300
     26 F26         -6.7020     1.5120     1.7330 f          1 WEF      -0.117667
     27 F27         -6.5000     2.6700    -0.0640 f          1 WEF      -0.117667
     28 F28         -7.4830     0.7580    -0.1260 f          1 WEF      -0.117667
     29 C29         -4.0280     1.1620     0.8810 ca         1 WEF      -0.066500
     30 C30         -2.7900     0.6090     0.6130 ca         1 WEF      -0.097000
     31 S31          0.1240    -0.3570     0.0010 ss         1 WEF       0.009600
     32 H1           2.4580    -1.2380     1.0970 hn         1 WEF       0.301500
     33 H2           4.9270    -0.9530    -0.4750 h1         1 WEF       0.068700
     34 H3           4.3490    -0.1770     2.4150 hc         1 WEF       0.059700
     35 H4           5.8540     0.0660     1.5500 hc         1 WEF       0.059700
     36 H5           2.4350     1.3010     2.0390 ha         1 WEF       0.112500
     37 H6           1.5280     3.3630     1.0710 ha         1 WEF       0.107500
     38 H7           3.2570     5.2100    -1.3790 ho         1 WEF       0.455000
     39 H8           5.0320     3.7390    -1.3720 ha         1 WEF       0.107500
     40 H9           5.9190     1.6730    -0.4100 ha         1 WEF       0.112500
     41 H11          1.4470    -3.7720    -2.4440 hc         1 WEF       0.056033
     42 H12         -0.2810    -4.0510    -2.7130 hc         1 WEF       0.056033
     43 H13          0.5960    -2.8880    -3.7000 hc         1 WEF       0.056033
     44 H14         -3.6620    -1.4640    -1.9170 ha         1 WEF       0.135500
     45 H15         -5.8520    -0.4960    -1.4520 ha         1 WEF       0.126000
     46 H16         -4.1120     1.8970     1.6700 ha         1 WEF       0.126000
     47 H17         -1.9440     0.9270     1.2100 ha         1 WEF       0.135500
@<TRIPOS>BOND
     1     1     2 2   
     2     2     3 1   
     3     2    16 1   
     4     3     4 1   
     5     3    32 1   
     6     4     5 1   
     7     4    13 1   
     8     4    33 1   
     9     5     6 1   
    10     5    34 1   
    11     5    35 1   
    12     6     7 ar  
    13     6    12 ar  
    14     7     8 ar  
    15     7    36 1   
    16     8     9 ar  
    17     8    37 1   
    18     9    10 1   
    19     9    11 ar  
    20    10    38 1   
    21    11    12 ar  
    22    11    39 1   
    23    12    40 1   
    24    13    14 1   
    25    13    15 1   
    26    16    17 2   
    27    16    31 1   
    28    17    18 1   
    29    17    19 1   
    30    18    41 1   
    31    18    42 1   
    32    18    43 1   
    33    19    20 2   
    34    20    21 1   
    35    20    31 1   
    36    21    22 ar  
    37    21    30 ar  
    38    22    23 ar  
    39    22    44 1   
    40    23    24 ar  
    41    23    45 1   
    42    24    25 1   
    43    24    29 ar  
    44    25    26 1   
    45    25    27 1   
    46    25    28 1   
    47    29    30 ar  
    48    29    46 1   
    49    30    47 1   
@<TRIPOS>SUBSTRUCTURE
     1 WEF         1 TEMP              0 ****  ****    0 ROOT
