@<TRIPOS>MOLECULE
WEF
   47    49     1     0     0
SMALL
No Charge or Current Charge


@<TRIPOS>ATOM
      1 O01          3.1550    -1.2410    -1.4380 o          1 WEF      -0.605100
      2 C02          2.3500    -1.1350    -0.5240 c          1 WEF       0.639700
      3 N03          2.7280    -1.2080     0.7990 ns         1 WEF      -0.446900
      4 C04          4.1260    -1.2600     1.2940 c3         1 WEF      -0.042300
      5 C05          4.6610     0.1530     1.6420 c3         1 WEF      -0.034100
      6 C06          4.5330     1.1470     0.4920 ca         1 WEF      -0.081300
      7 C07          3.4390     2.0330     0.4340 ca         1 WEF      -0.076500
      8 C08          3.3150     2.9350    -0.6360 ca         1 WEF      -0.176500
      9 C09          4.2830     2.9600    -1.6510 ca         1 WEF       0.112100
     10 O10          4.1560     3.8370    -2.6840 oh         1 WEF      -0.548100
     11 C11          5.3780     2.0830    -1.5980 ca         1 WEF      -0.176500
     12 C12          5.5020     1.1770    -0.5300 ca         1 WEF      -0.076500
     13 C13          4.2420    -2.2250     2.5100 c          1 WEF       0.716000
     14 O14          3.4380    -2.1080     3.4260 o          1 WEF      -0.715500
     15 O15          5.0780    -3.1170     2.4600 o          1 WEF      -0.715500
     16 C16          0.9000    -0.9250    -0.6990 cc         1 WEF      -0.262600
     17 C17          0.2610    -0.7970    -1.9140 cd         1 WEF       0.335300
     18 C18          0.8730    -0.8470    -3.2890 c3         1 WEF      -0.118400
     19 N19         -1.1080    -0.5940    -1.8220 nd         1 WEF      -0.654000
     20 C20         -1.4960    -0.5630    -0.5500 cc         1 WEF       0.442900
     21 C21         -2.9040    -0.3610    -0.1500 ca         1 WEF      -0.076500
     22 C22         -3.9130    -0.2030    -1.1280 ca         1 WEF      -0.097000
     23 C23         -5.2550    -0.0080    -0.7610 ca         1 WEF      -0.066500
     24 C24         -5.6290     0.0300     0.5970 ca         1 WEF      -0.202300
     25 C25         -7.0920     0.2530     1.0000 c3         1 WEF       0.356300
     26 F26         -7.3990    -0.3460     2.1740 f          1 WEF      -0.117667
     27 F27         -7.3650     1.5690     1.1450 f          1 WEF      -0.117667
     28 F28         -7.9590    -0.2320     0.0820 f          1 WEF      -0.117667
     29 C29         -4.6280    -0.1160     1.5790 ca         1 WEF      -0.066500
     30 C30         -3.2850    -0.3110     1.2110 ca         1 WEF      -0.097000
     31 S31         -0.2220    -0.7820     0.6270 ss         1 WEF       0.009600
     32 H1           1.9860    -1.1490     1.4840 hn         1 WEF       0.301500
     33 H2           4.7580    -1.6770     0.4990 h1         1 WEF       0.068700
     34 H3           4.1240     0.5300     2.5220 hc         1 WEF       0.059700
     35 H4           5.7110     0.0670     1.9470 hc         1 WEF       0.059700
     36 H5           2.6800     2.0160     1.2140 ha         1 WEF       0.112500
     37 H6           2.4660     3.6140    -0.6780 ha         1 WEF       0.107500
     38 H7           4.9180     3.7130    -3.2910 ho         1 WEF       0.455000
     39 H8           6.1320     2.0940    -2.3810 ha         1 WEF       0.107500
     40 H9           6.3490     0.4940    -0.4980 ha         1 WEF       0.112500
     41 H11          1.3600    -1.8130    -3.4650 hc         1 WEF       0.056033
     42 H12          0.1190    -0.7100    -4.0720 hc         1 WEF       0.056033
     43 H13          1.6240    -0.0580    -3.4110 hc         1 WEF       0.056033
     44 H14         -3.6620    -0.2290    -2.1870 ha         1 WEF       0.135500
     45 H15         -6.0030     0.1150    -1.5420 ha         1 WEF       0.126000
     46 H16         -4.8840    -0.0760     2.6360 ha         1 WEF       0.126000
     47 H17         -2.5490    -0.4190     2.0040 ha         1 WEF       0.135500
@<TRIPOS>BOND
     1     1     2 2   
     2     2     3 1   
     3     2    16 1   
     4     3     4 1   
     5     3    32 1   
     6     4     5 1   
     7     4    13 1   
     8     4    33 1   
     9     5     6 1   
    10     5    34 1   
    11     5    35 1   
    12     6     7 ar  
    13     6    12 ar  
    14     7     8 ar  
    15     7    36 1   
    16     8     9 ar  
    17     8    37 1   
    18     9    10 1   
    19     9    11 ar  
    20    10    38 1   
    21    11    12 ar  
    22    11    39 1   
    23    12    40 1   
    24    13    14 1   
    25    13    15 1   
    26    16    17 2   
    27    16    31 1   
    28    17    18 1   
    29    17    19 1   
    30    18    41 1   
    31    18    42 1   
    32    18    43 1   
    33    19    20 2   
    34    20    21 1   
    35    20    31 1   
    36    21    22 ar  
    37    21    30 ar  
    38    22    23 ar  
    39    22    44 1   
    40    23    24 ar  
    41    23    45 1   
    42    24    25 1   
    43    24    29 ar  
    44    25    26 1   
    45    25    27 1   
    46    25    28 1   
    47    29    30 ar  
    48    29    46 1   
    49    30    47 1   
@<TRIPOS>SUBSTRUCTURE
     1 WEF         1 TEMP              0 ****  ****    0 ROOT
