@<TRIPOS>MOLECULE
WEG
   32    35     1     0     0
SMALL
No Charge or Current Charge


@<TRIPOS>ATOM
      1 C5          -6.6370     1.6710   -28.1350 ca         1 WEG      -0.103000
      2 C7          -5.3410     2.2090   -28.1110 ca         1 WEG      -0.107500
      3 N12         -4.2510     5.1270   -24.9870 na         1 WEG      -0.320400
      4 C15         -6.3250     5.0200   -24.0760 cc         1 WEG      -0.218200
      5 C17         -5.5190     5.9350   -23.3290 ca         1 WEG      -0.133800
      6 C20         -6.2340     8.4650   -19.7820 cc         1 WEG      -0.163000
      7 C28         -4.8270     7.5230   -21.6790 ca         1 WEG      -0.071000
      8 C1          -7.2150     2.9960   -26.1750 ca         1 WEG      -0.097500
      9 C11         -5.9140     3.5460   -26.1390 ca         1 WEG      -0.035800
     10 C14         -5.5290     4.5260   -25.1000 cd         1 WEG       0.004700
     11 C18         -5.8460     6.6990   -22.2030 ca         1 WEG      -0.029000
     12 C25         -4.1410     9.2390   -19.8640 cd         1 WEG       0.247900
     13 C27         -5.0670     8.3690   -20.4920 cd         1 WEG      -0.146000
     14 C29         -3.5650     7.5110   -22.3310 ca         1 WEG       0.367900
     15 C3          -7.5730     2.0650   -27.1670 ca         1 WEG      -0.107500
     16 C32         -4.2720     5.9790   -23.9030 ca         1 WEG       0.368500
     17 C9          -4.9820     3.1400   -27.1210 ca         1 WEG      -0.097500
     18 N22         -5.9440     9.3820   -18.7730 na         1 WEG      -0.002200
     19 N23         -4.6470     9.8660   -18.8190 nc         1 WEG      -0.519800
     20 N31         -3.2820     6.7550   -23.4260 nb         1 WEG      -0.681000
     21 H1          -6.9150     0.9510   -28.9020 ha         1 WEG       0.116000
     22 H2          -4.6140     1.9060   -28.8610 ha         1 WEG       0.115500
     23 H4          -7.3610     4.7590   -23.8810 ha         1 WEG       0.206000
     24 H5          -7.2010     7.9900   -19.8930 h4         1 WEG       0.155000
     25 H6          -7.9590     3.2820   -25.4390 ha         1 WEG       0.113500
     26 H7          -6.8380     6.6500   -21.7630 ha         1 WEG       0.117000
     27 H8          -3.1120     9.4320   -20.1400 h4         1 WEG       0.039100
     28 H9          -2.7450     8.1280   -21.9670 h4         1 WEG       0.020100
     29 H10         -8.5780     1.6500   -27.1830 ha         1 WEG       0.115500
     30 H11         -3.9720     3.5410   -27.1250 ha         1 WEG       0.113500
     31 H12         -6.5950     9.6940   -18.0520 hn         1 WEG       0.372000
     32 H3          -3.4530     4.9710   -25.5860 hn         1 WEG       0.361000
@<TRIPOS>BOND
     1     1     2 ar  
     2     1    15 ar  
     3     1    21 1   
     4     2    17 ar  
     5     2    22 1   
     6     3    10 1   
     7     3    16 1   
     8     3    32 1   
     9     4     5 1   
    10     4    10 2   
    11     4    23 1   
    12     5    11 ar  
    13     5    16 ar  
    14     6    13 2   
    15     6    18 1   
    16     6    24 1   
    17     7    11 ar  
    18     7    13 1   
    19     7    14 ar  
    20     8     9 ar  
    21     8    15 ar  
    22     8    25 1   
    23     9    10 1   
    24     9    17 ar  
    25    11    26 1   
    26    12    13 1   
    27    12    19 2   
    28    12    27 1   
    29    14    20 ar  
    30    14    28 1   
    31    15    29 1   
    32    16    20 ar  
    33    17    30 1   
    34    18    19 1   
    35    18    31 1   
@<TRIPOS>SUBSTRUCTURE
     1 WEG         1 TEMP              0 ****  ****    0 ROOT
