@<TRIPOS>MOLECULE
WEG
   32    35     1     0     0
SMALL
abcg2


@<TRIPOS>ATOM
      1 C5          -6.5270     1.7230   -28.1520 ca         1 WEG      -0.103000
      2 C7          -5.2070     1.9730   -27.8040 ca         1 WEG      -0.107500
      3 N12         -4.4040     5.1430   -24.9580 na         1 WEG      -0.320400
      4 C15         -6.4540     4.9830   -24.0760 cc         1 WEG      -0.218200
      5 C17         -5.6990     5.9010   -23.2950 ca         1 WEG      -0.133800
      6 C20         -5.9000     8.1710   -19.4600 cc         1 WEG      -0.163000
      7 C28         -4.8880     7.4900   -21.7060 ca         1 WEG      -0.071000
      8 C1          -7.2490     3.3230   -26.5060 ca         1 WEG      -0.097500
      9 C11         -5.9230     3.5790   -26.1450 ca         1 WEG      -0.035800
     10 C14         -5.6340     4.5410   -25.0850 cd         1 WEG       0.004700
     11 C18         -5.9270     6.6900   -22.1720 ca         1 WEG      -0.029000
     12 C25         -4.3530     9.5340   -20.2120 cd         1 WEG       0.247900
     13 C27         -5.0420     8.3420   -20.5290 cd         1 WEG      -0.146000
     14 C29         -3.6620     7.4650   -22.3980 ca         1 WEG       0.367900
     15 C3          -7.5470     2.4020   -27.4960 ca         1 WEG      -0.107500
     16 C32         -4.4180     5.9790   -23.8860 ca         1 WEG       0.368500
     17 C9          -4.9060     2.8900   -26.8080 ca         1 WEG      -0.097500
     18 N22         -5.6860     9.2020   -18.6290 na         1 WEG      -0.002200
     19 N23         -4.7560    10.0410   -19.0630 nc         1 WEG      -0.519800
     20 N31         -3.4150     6.7340   -23.4720 nb         1 WEG      -0.681000
     21 H1          -6.7600     1.0070   -28.9280 ha         1 WEG       0.116000
     22 H2          -4.4040     1.4470   -28.3050 ha         1 WEG       0.115500
     23 H4          -7.4680     4.6620   -23.8970 ha         1 WEG       0.206000
     24 H5          -6.6190     7.3990   -19.2370 h4         1 WEG       0.155000
     25 H6          -8.0550     3.8580   -26.0200 ha         1 WEG       0.113500
     26 H7          -6.8930     6.6940   -21.6810 ha         1 WEG       0.117000
     27 H8          -3.5930    10.0370   -20.7920 h4         1 WEG       0.039100
     28 H9          -2.8370     8.0720   -22.0400 h4         1 WEG       0.020100
     29 H10         -8.5800     2.2200   -27.7630 ha         1 WEG       0.115500
     30 H11         -3.8680     3.0450   -26.5420 ha         1 WEG       0.113500
     31 H12         -6.1480     9.3760   -17.7500 hn         1 WEG       0.372000
     32 H3          -3.6300     5.0530   -25.5970 hn         1 WEG       0.361000
@<TRIPOS>BOND
     1     1     2 ar  
     2     1    15 ar  
     3     1    21 1   
     4     2    17 ar  
     5     2    22 1   
     6     3    10 1   
     7     3    16 1   
     8     3    32 1   
     9     4     5 1   
    10     4    10 2   
    11     4    23 1   
    12     5    11 ar  
    13     5    16 ar  
    14     6    13 2   
    15     6    18 1   
    16     6    24 1   
    17     7    11 ar  
    18     7    13 1   
    19     7    14 ar  
    20     8     9 ar  
    21     8    15 ar  
    22     8    25 1   
    23     9    10 1   
    24     9    17 ar  
    25    11    26 1   
    26    12    13 1   
    27    12    19 2   
    28    12    27 1   
    29    14    20 ar  
    30    14    28 1   
    31    15    29 1   
    32    16    20 ar  
    33    17    30 1   
    34    18    19 1   
    35    18    31 1   
@<TRIPOS>SUBSTRUCTURE
     1 WEG         1 TEMP              0 ****  ****    0 ROOT
