@<TRIPOS>MOLECULE
WEH
   22    21     1     0     0
SMALL
No Charge or Current Charge


@<TRIPOS>ATOM
      1 N          -13.4980    -0.4110     2.4300 n8         1 WEH      -0.998200
      2 CA         -13.5670     0.3180     3.7500 c3         1 WEH       0.013500
      3 C          -12.7640     1.6820     3.8340 c          1 WEH       0.693000
      4 O          -11.6000     1.6980     3.4520 o          1 WEH      -0.736000
      5 C02        -13.1610    -0.6170     4.9220 c3         1 WEH      -0.052400
      6 C08        -13.7630    -2.6910     6.3740 c3         1 WEH      -0.153400
      7 C09        -12.3880    -3.3640     6.2640 c          1 WEH       0.608100
      8 O10        -12.1790    -4.3550     5.5840 o          1 WEH      -0.613100
      9 N11        -11.3950    -2.8150     6.9940 nt         1 WEH      -0.617000
     10 H          -13.8280     0.2160     1.6860 hn         1 WEH       0.381500
     11 H2         -12.5080    -0.5500     2.1930 hn         1 WEH       0.381500
     12 HA         -14.6230     0.5800     3.9020 h1         1 WEH       0.032700
     13 H011       -15.1340    -1.4620     5.2360 hc         1 WEH       0.049200
     14 H012       -14.0890    -2.4680     4.2400 hc         1 WEH       0.049200
     15 H022       -12.1330    -0.9680     4.7650 hc         1 WEH       0.037200
     16 H021       -13.1500    -0.0250     5.8460 hc         1 WEH       0.037200
     17 H082       -13.7930    -2.0390     7.2560 hc         1 WEH       0.039200
     18 H081       -14.5290    -3.4700     6.4660 hc         1 WEH       0.039200
     19 H112       -10.4740    -3.2260     6.9640 hn         1 WEH       0.303500
     20 H111       -11.5770    -2.0000     7.5620 hn         1 WEH       0.303500
     21 OXT        -13.3690     2.6920     4.1670 o          1 WEH      -0.736000
     22 C01        -14.1050    -1.8290     5.1320 c3         1 WEH      -0.064400
@<TRIPOS>BOND
     1     1     2 1   
     2     1    10 1   
     3     1    11 1   
     4     2     3 1   
     5     2     5 1   
     6     2    12 1   
     7     3     4 1   
     8     3    21 1   
     9     5    15 1   
    10     5    16 1   
    11     5    22 1   
    12     6     7 1   
    13     6    17 1   
    14     6    18 1   
    15     6    22 1   
    16     7     8 2   
    17     7     9 1   
    18     9    19 1   
    19     9    20 1   
    20    13    22 1   
    21    14    22 1   
@<TRIPOS>SUBSTRUCTURE
     1 WEH         1 TEMP              0 ****  ****    0 ROOT
