@<TRIPOS>MOLECULE
WEH
   22    21     1     0     0
SMALL
abcg2


@<TRIPOS>ATOM
      1 N          -13.4770    -0.4830     2.4780 n8         1 WEH      -0.998200
      2 CA         -13.6010     0.3130     3.6920 c3         1 WEH       0.013500
      3 C          -12.7910     1.6360     3.6960 c          1 WEH       0.693000
      4 O          -11.8670     1.7410     2.8650 o          1 WEH      -0.736000
      5 C02        -13.1990    -0.5270     4.9090 c3         1 WEH      -0.052400
      6 C08        -13.6780    -2.5760     6.3410 c3         1 WEH      -0.153400
      7 C09        -12.3190    -3.2300     6.1890 c          1 WEH       0.608100
      8 O10        -12.0300    -3.8920     5.2010 o          1 WEH      -0.613100
      9 N11        -11.4700    -3.0450     7.2120 nt         1 WEH      -0.617000
     10 H          -13.9040     0.0260     1.7120 hn         1 WEH       0.381500
     11 H2         -12.4920    -0.5140     2.2370 hn         1 WEH       0.381500
     12 HA         -14.6610     0.5710     3.8090 h1         1 WEH       0.032700
     13 H011       -15.1120    -1.4390     5.2350 hc         1 WEH       0.049200
     14 H012       -14.0460    -2.3880     4.2260 hc         1 WEH       0.049200
     15 H022       -12.1490    -0.8250     4.7980 hc         1 WEH       0.037200
     16 H021       -13.2460     0.1010     5.8020 hc         1 WEH       0.037200
     17 H082       -13.7160    -1.9540     7.2380 hc         1 WEH       0.039200
     18 H081       -14.4040    -3.3810     6.4920 hc         1 WEH       0.039200
     19 H112       -10.5540    -3.4650     7.1990 hn         1 WEH       0.303500
     20 H111       -11.7140    -2.4900     8.0130 hn         1 WEH       0.303500
     21 OXT        -13.1240     2.4750     4.5590 o          1 WEH      -0.736000
     22 C01        -14.0730    -1.7580     5.1160 c3         1 WEH      -0.064400
@<TRIPOS>BOND
     1     1     2 1   
     2     1    10 1   
     3     1    11 1   
     4     2     3 1   
     5     2     5 1   
     6     2    12 1   
     7     3     4 1   
     8     3    21 1   
     9     5    15 1   
    10     5    16 1   
    11     5    22 1   
    12     6     7 1   
    13     6    17 1   
    14     6    18 1   
    15     6    22 1   
    16     7     8 2   
    17     7     9 1   
    18     9    19 1   
    19     9    20 1   
    20    13    22 1   
    21    14    22 1   
@<TRIPOS>SUBSTRUCTURE
     1 WEH         1 TEMP              0 ****  ****    0 ROOT
