@<TRIPOS>MOLECULE
WEI
   17    18     1     0     0
SMALL
No Charge or Current Charge


@<TRIPOS>ATOM
      1 C1           0.7350     5.1570    18.8070 ca         1 WEI       0.220300
      2 C2           2.0400     5.4590    18.4790 ca         1 WEI      -0.292800
      3 N3          -0.3060     5.9200    18.4300 nb         1 WEI      -0.253000
      4 S4           0.5850     3.6730    19.7660 ss         1 WEI      -0.144900
      5 C5           2.2620     6.6150    17.7220 ca         1 WEI       0.459900
      6 C6           2.9970     4.4960    18.9850 cc         1 WEI      -0.129200
      7 C7           0.0260     7.0030    17.7060 ca         1 WEI       0.410900
      8 C8           2.3660     3.4850    19.6930 cd         1 WEI      -0.190400
      9 N9           1.2520     7.4010    17.3290 nb         1 WEI      -0.338000
     10 N10          3.5000     7.0170    17.3480 nv         1 WEI      -1.076900
     11 N11         -0.9940     7.7990    17.3100 nv         1 WEI      -1.047900
     12 H12          4.0760     4.5330    18.8370 ha         1 WEI       0.193000
     13 H13          2.8350     2.6340    20.1790 h4         1 WEI       0.217000
     14 H15          3.5970     7.9690    17.0040 hn         1 WEI       0.497500
     15 H14          4.2990     6.6350    17.8430 hn         1 WEI       0.497500
     16 H17         -1.9030     7.6750    17.7510 hn         1 WEI       0.487500
     17 H16         -0.7770     8.7280    16.9590 hn         1 WEI       0.487500
@<TRIPOS>BOND
     1     1     2 ar  
     2     1     3 ar  
     3     1     4 1   
     4     2     5 ar  
     5     2     6 1   
     6     3     7 ar  
     7     4     8 1   
     8     5     9 ar  
     9     5    10 1   
    10     6     8 2   
    11     6    12 1   
    12     7     9 ar  
    13     7    11 1   
    14     8    13 1   
    15    10    14 1   
    16    10    15 1   
    17    11    16 1   
    18    11    17 1   
@<TRIPOS>SUBSTRUCTURE
     1 WEI         1 TEMP              0 ****  ****    0 ROOT
