@<TRIPOS>MOLECULE
WEI
   17    18     1     0     0
SMALL
abcg2


@<TRIPOS>ATOM
      1 C1           0.7430     5.1730    18.7930 ca         1 WEI       0.220300
      2 C2           2.0810     5.4610    18.4990 ca         1 WEI      -0.292800
      3 N3          -0.3110     5.9110    18.4340 nb         1 WEI      -0.253000
      4 S4           0.6180     3.6950    19.7110 ss         1 WEI      -0.144900
      5 C5           2.2860     6.6540    17.7550 ca         1 WEI       0.459900
      6 C6           2.9870     4.4810    19.0200 cc         1 WEI      -0.129200
      7 C7           0.0070     7.0050    17.7310 ca         1 WEI       0.410900
      8 C8           2.3500     3.4860    19.6850 cd         1 WEI      -0.190400
      9 N9           1.2460     7.4050    17.3860 nb         1 WEI      -0.338000
     10 N10          3.5150     7.0600    17.3810 nv         1 WEI      -1.076900
     11 N11         -1.0220     7.7820    17.2880 nv         1 WEI      -1.047900
     12 H12          4.0610     4.5160    18.9020 ha         1 WEI       0.193000
     13 H13          2.7850     2.6280    20.1720 h4         1 WEI       0.217000
     14 H15          3.6150     7.9600    16.9420 hn         1 WEI       0.497500
     15 H14          4.3430     6.6110    17.7330 hn         1 WEI       0.497500
     16 H17         -1.9180     7.6530    17.7290 hn         1 WEI       0.487500
     17 H16         -0.7960     8.7170    16.9890 hn         1 WEI       0.487500
@<TRIPOS>BOND
     1     1     2 ar  
     2     1     3 ar  
     3     1     4 1   
     4     2     5 ar  
     5     2     6 1   
     6     3     7 ar  
     7     4     8 1   
     8     5     9 ar  
     9     5    10 1   
    10     6     8 2   
    11     6    12 1   
    12     7     9 ar  
    13     7    11 1   
    14     8    13 1   
    15    10    14 1   
    16    10    15 1   
    17    11    16 1   
    18    11    17 1   
@<TRIPOS>SUBSTRUCTURE
     1 WEI         1 TEMP              0 ****  ****    0 ROOT
