@<TRIPOS>MOLECULE
WEJ
   42    45     1     0     0
SMALL
bcc


@<TRIPOS>ATOM
      1 C5          19.2820     2.6530   -35.8390 c3         1 WEJ      -0.029800
      2 C10         17.0590     1.4480   -35.1820 cc         1 WEJ      -0.232600
      3 N12         17.5860     1.5540   -37.2930 na         1 WEJ       0.009400
      4 C15         16.1010     0.8240   -36.0160 cc         1 WEJ       0.248800
      5 C17         12.1480     0.8680   -33.4440 ca         1 WEJ       0.394200
      6 C20         10.7890    -0.7930   -32.8280 ca         1 WEJ       0.421800
      7 C1          17.1020     1.5700   -33.6950 c3         1 WEJ      -0.015800
      8 C11         18.0160     1.9090   -36.0650 cd         1 WEJ      -0.097600
      9 C16         14.8550     0.0980   -35.6750 c          1 WEJ       0.604600
     10 C23          9.1560    -5.0190   -31.6560 ca         1 WEJ      -0.115000
     11 C25          8.2030    -5.9180   -31.2050 ca         1 WEJ      -0.125500
     12 C27          6.8900    -5.5080   -31.0090 ca         1 WEJ      -0.121000
     13 C29          6.5390    -4.1920   -31.2750 ca         1 WEJ      -0.125500
     14 C31          7.4890    -3.2910   -31.7330 ca         1 WEJ      -0.115000
     15 C33          8.8130    -3.6920   -31.9290 ca         1 WEJ      -0.036800
     16 C34          9.8310    -2.7660   -32.4160 cc         1 WEJ       0.005700
     17 C35         11.0150    -3.0450   -33.0540 cd         1 WEJ      -0.166200
     18 C37         11.6450    -1.8000   -33.3280 ca         1 WEJ      -0.185100
     19 C38         12.8390    -1.3950   -33.9180 ca         1 WEJ      -0.046000
     20 C40         13.0870    -0.0310   -33.9780 ca         1 WEJ      -0.090700
     21 N13         16.4470     0.8960   -37.2930 nd         1 WEJ      -0.453800
     22 N19         11.0160     0.5080   -32.8650 nb         1 WEJ      -0.667000
     23 N21          9.6990    -1.4040   -32.2920 na         1 WEJ      -0.270100
     24 N41         14.2700     0.5010   -34.5170 ns         1 WEJ      -0.476100
     25 O9          14.4080    -0.7860   -36.3830 o          1 WEJ      -0.557100
     26 H1          19.1030     3.7250   -35.7410 hc         1 WEJ       0.052700
     27 H2          19.7690     2.3180   -34.9250 hc         1 WEJ       0.052700
     28 H3          19.9800     2.5070   -36.6620 hc         1 WEJ       0.052700
     29 H4          18.0520     1.7420   -38.1690 hn         1 WEJ       0.324700
     30 H5          12.3510     1.9340   -33.4930 h4         1 WEJ       0.016100
     31 H6          16.4650     2.3780   -33.3240 hc         1 WEJ       0.042367
     32 H7          16.7840     0.6510   -33.2020 hc         1 WEJ       0.042367
     33 H8          18.1130     1.7880   -33.3530 hc         1 WEJ       0.042367
     34 H10          8.4900    -6.9400   -30.9960 ha         1 WEJ       0.133500
     35 H11          6.1470    -6.2090   -30.6520 ha         1 WEJ       0.133000
     36 H12          5.5180    -3.8620   -31.1310 ha         1 WEJ       0.133500
     37 H13          7.1800    -2.2770   -31.9550 ha         1 WEJ       0.132000
     38 H14         11.3780    -4.0260   -33.3190 ha         1 WEJ       0.160000
     39 H15         13.5490    -2.1180   -34.2930 ha         1 WEJ       0.159000
     40 H16          8.9610    -0.9230   -31.8020 hn         1 WEJ       0.309700
     41 H17         14.5940     1.3610   -34.1030 hn         1 WEJ       0.323500
     42 H9          10.1790    -5.3500   -31.7820 ha         1 WEJ       0.132000
@<TRIPOS>BOND
     1     1     8 1   
     2     1    26 1   
     3     1    27 1   
     4     1    28 1   
     5     2     4 1   
     6     2     7 1   
     7     2     8 2   
     8     3     8 1   
     9     3    21 1   
    10     3    29 1   
    11     4     9 1   
    12     4    21 2   
    13     5    20 ar  
    14     5    22 ar  
    15     5    30 1   
    16     6    18 ar  
    17     6    22 ar  
    18     6    23 1   
    19     7    31 1   
    20     7    32 1   
    21     7    33 1   
    22     9    24 1   
    23     9    25 2   
    24    10    11 ar  
    25    10    15 ar  
    26    10    42 1   
    27    11    12 ar  
    28    11    34 1   
    29    12    13 ar  
    30    12    35 1   
    31    13    14 ar  
    32    13    36 1   
    33    14    15 ar  
    34    14    37 1   
    35    15    16 1   
    36    16    17 2   
    37    16    23 1   
    38    17    18 1   
    39    17    38 1   
    40    18    19 ar  
    41    19    20 ar  
    42    19    39 1   
    43    20    24 1   
    44    23    40 1   
    45    24    41 1   
@<TRIPOS>SUBSTRUCTURE
     1 WEJ         1 TEMP              0 ****  ****    0 ROOT
