@<TRIPOS>MOLECULE
WEJ
   42    45     1     0     0
SMALL
No Charge or Current Charge


@<TRIPOS>ATOM
      1 C5          18.9580     3.1840   -36.0680 c3         1 WEJ      -0.029800
      2 C10         16.9850     1.6130   -35.4070 cc         1 WEJ      -0.167300
      3 N12         18.3770     0.8400   -36.9290 na         1 WEJ       0.009800
      4 C15         16.6090     0.2990   -35.8510 cc         1 WEJ       0.183500
      5 C17         12.8610     0.5380   -32.7780 ca         1 WEJ       0.328900
      6 C20         11.1650    -0.9340   -32.2860 ca         1 WEJ       0.356500
      7 C1          16.3020     2.4900   -34.3800 c3         1 WEJ      -0.015800
      8 C11         18.1130     1.9350   -36.1080 cd         1 WEJ      -0.148300
      9 C16         15.4200    -0.5160   -35.3780 c          1 WEJ       0.537600
     10 C23          8.6630    -5.0180   -32.4270 ca         1 WEJ      -0.097000
     11 C25          7.5980    -5.8820   -32.1180 ca         1 WEJ      -0.107500
     12 C27          6.5380    -5.4360   -31.3140 ca         1 WEJ      -0.103000
     13 C29          6.5450    -4.1230   -30.8170 ca         1 WEJ      -0.107500
     14 C31          7.6090    -3.2580   -31.1250 ca         1 WEJ      -0.097000
     15 C33          8.6810    -3.6920   -31.9350 ca         1 WEJ      -0.036800
     16 C34          9.7830    -2.7700   -32.2420 cc         1 WEJ       0.005700
     17 C35         10.7900    -2.9920   -33.1640 cd         1 WEJ      -0.216200
     18 C37         11.6630    -1.8440   -33.1930 ca         1 WEJ      -0.119800
     19 C38         12.8110    -1.5910   -33.9500 ca         1 WEJ      -0.028000
     20 C40         13.4390    -0.3410   -33.7310 ca         1 WEJ      -0.118000
     21 N13         17.4460    -0.1730   -36.7700 nd         1 WEJ      -0.453800
     22 N19         11.7420     0.2580   -32.0610 nb         1 WEJ      -0.667000
     23 N21         10.0330    -1.4890   -31.7180 na         1 WEJ      -0.320400
     24 N41         14.6190     0.0870   -34.4130 ns         1 WEJ      -0.150000
     25 O9          15.1750    -1.6380   -35.8170 o          1 WEJ      -0.557100
     26 H1          18.3670     4.0660   -36.3410 hc         1 WEJ       0.052700
     27 H2          19.3650     3.3500   -35.0640 hc         1 WEJ       0.052700
     28 H3          19.8040     3.1220   -36.7640 hc         1 WEJ       0.052700
     29 H4          19.1510     0.7500   -37.5850 hn         1 WEJ       0.375000
     30 H5          13.3160     1.5090   -32.5820 h4         1 WEJ       0.016100
     31 H6          15.2750     2.7310   -34.6810 hc         1 WEJ       0.042367
     32 H7          16.2820     2.0090   -33.3950 hc         1 WEJ       0.042367
     33 H8          16.8290     3.4440   -34.2580 hc         1 WEJ       0.042367
     34 H10          7.5960    -6.9000   -32.5020 ha         1 WEJ       0.115500
     35 H11          5.7140    -6.1050   -31.0760 ha         1 WEJ       0.115000
     36 H12          5.7240    -3.7750   -30.1930 ha         1 WEJ       0.115500
     37 H13          7.5930    -2.2450   -30.7320 ha         1 WEJ       0.114000
     38 H14         10.9050    -3.8770   -33.7830 ha         1 WEJ       0.210000
     39 H15         13.1730    -2.3310   -34.6560 ha         1 WEJ       0.141000
     40 H16          9.4750    -1.0210   -31.0180 hn         1 WEJ       0.360000
     41 H17         14.9300     1.0070   -34.1380 hn         1 WEJ       0.157000
     42 H9           9.4730    -5.3940   -33.0440 ha         1 WEJ       0.114000
@<TRIPOS>BOND
     1     1     8 1   
     2     1    26 1   
     3     1    27 1   
     4     1    28 1   
     5     2     4 1   
     6     2     7 1   
     7     2     8 2   
     8     3     8 1   
     9     3    21 1   
    10     3    29 1   
    11     4     9 1   
    12     4    21 2   
    13     5    20 ar  
    14     5    22 ar  
    15     5    30 1   
    16     6    18 ar  
    17     6    22 ar  
    18     6    23 1   
    19     7    31 1   
    20     7    32 1   
    21     7    33 1   
    22     9    24 1   
    23     9    25 2   
    24    10    11 ar  
    25    10    15 ar  
    26    10    42 1   
    27    11    12 ar  
    28    11    34 1   
    29    12    13 ar  
    30    12    35 1   
    31    13    14 ar  
    32    13    36 1   
    33    14    15 ar  
    34    14    37 1   
    35    15    16 1   
    36    16    17 2   
    37    16    23 1   
    38    17    18 1   
    39    17    38 1   
    40    18    19 ar  
    41    19    20 ar  
    42    19    39 1   
    43    20    24 1   
    44    23    40 1   
    45    24    41 1   
@<TRIPOS>SUBSTRUCTURE
     1 WEJ         1 TEMP              0 ****  ****    0 ROOT
