@<TRIPOS>MOLECULE
WEM
   56    60     1     0     0
SMALL
abcg2


@<TRIPOS>ATOM
      1 C4          -8.6840    18.4550     8.5000 cc         1 WEM      -0.073400
      2 C5         -10.0430    18.8950     8.4830 cc         1 WEM      -0.033800
      3 C6         -10.7480    19.8440     7.7050 cc         1 WEM      -0.186300
      4 C11        -10.6420    17.3140    10.3190 c          1 WEM       0.595600
      5 C7         -12.0430    19.8360     8.1670 cd         1 WEM      -0.121000
      6 C10        -10.9470    18.3480     9.3820 cd         1 WEM      -0.253600
      7 C13        -10.1460    20.5570     6.5390 c3         1 WEM       0.308100
      8 N2          -9.3190    16.8980    10.2260 n          1 WEM      -0.277000
      9 C3          -8.4010    17.4550     9.3790 cd         1 WEM      -0.040400
     10 C1          -8.8560    15.8140    11.0850 c3         1 WEM       0.070300
     11 N8         -12.1520    18.9440     9.1820 na         1 WEM      -0.073000
     12 O12        -11.4390    16.8240    11.1110 o          1 WEM      -0.566000
     13 N14         -9.1800    19.6800     5.8770 nh         1 WEM      -0.794100
     14 C15         -7.8830    19.6860     6.4580 ca         1 WEM       0.265000
     15 C16         -7.6320    19.1030     7.7070 ca         1 WEM       0.015200
     16 C17         -6.3400    19.2280     8.2210 ca         1 WEM      -0.107000
     17 C18         -5.3080    19.8580     7.5400 ca         1 WEM      -0.022300
     18 C19         -5.5810    20.4360     6.2910 ca         1 WEM      -0.112600
     19 C20         -6.8720    20.3460     5.7840 ca         1 WEM      -0.037000
     20 C21         -4.6080    21.1900     5.4510 c          1 WEM       0.619700
     21 O22         -4.9420    22.0630     4.6890 o          1 WEM      -0.468000
     22 O23         -3.3630    20.7690     5.5820 os         1 WEM      -0.451100
     23 C24         -2.3470    21.4810     4.8760 c3         1 WEM       0.152900
     24 C25         -4.0060    20.0040     8.2680 c3         1 WEM      -0.233100
     25 S26         -3.9540    21.6530     9.0100 s6         1 WEM       1.069000
     26 O27         -4.0080    22.6520     7.9420 o          1 WEM      -0.509500
     27 O28         -4.9760    21.7150    10.0520 o          1 WEM      -0.509500
     28 C29         -2.3450    21.7170     9.7650 c3         1 WEM      -0.338100
     29 C30         -9.6690    18.5850     5.1950 ca         1 WEM       0.590900
     30 C31         -8.8770    17.5090     4.7540 ca         1 WEM       0.092000
     31 C32         -9.4350    16.4580     4.0710 ca         1 WEM      -0.130000
     32 C33        -10.7970    16.4990     3.8240 ca         1 WEM       0.089000
     33 C34        -11.5300    17.5780     4.2550 ca         1 WEM       0.340900
     34 N35        -10.9640    18.5770     4.9210 nb         1 WEM      -0.709000
     35 F36        -11.3880    15.4900     3.1720 f          1 WEM      -0.168000
     36 F37         -7.5580    17.4810     4.9870 f          1 WEM      -0.166000
     37 H1         -12.8990    20.3980     7.8280 h4         1 WEM       0.154000
     38 H2          -9.5980    21.4510     6.8430 h1         1 WEM       0.073200
     39 H3         -10.9080    20.8780     5.8320 h1         1 WEM       0.073200
     40 H4          -7.4100    17.0290     9.4540 h4         1 WEM       0.199000
     41 H5          -9.6550    15.5080    11.7480 h1         1 WEM       0.056367
     42 H6          -8.5520    14.9600    10.4810 h1         1 WEM       0.056367
     43 H7          -8.0080    16.1460    11.6810 h1         1 WEM       0.056367
     44 H9         -12.9980    18.7380     9.6900 hn         1 WEM       0.368000
     45 H8          -6.1320    18.8420     9.2100 ha         1 WEM       0.119000
     46 H10         -7.1070    20.7970     4.8300 ha         1 WEM       0.151000
     47 H11         -1.4100    21.0010     5.1420 h1         1 WEM       0.050367
     48 H12         -2.4930    21.4180     3.7980 h1         1 WEM       0.050367
     49 H13         -2.3170    22.5280     5.1780 h1         1 WEM       0.050367
     50 H14         -3.9320    19.2970     9.0940 h1         1 WEM       0.106700
     51 H15         -3.1270    19.8980     7.6380 h1         1 WEM       0.106700
     52 H16         -2.2490    22.6950    10.2370 h1         1 WEM       0.103367
     53 H17         -2.2610    20.9330    10.5150 h1         1 WEM       0.103367
     54 H18         -1.5820    21.5960     8.9990 h1         1 WEM       0.103367
     55 H19         -8.8210    15.6290     3.7410 ha         1 WEM       0.149000
     56 H20        -12.5960    17.6430     4.0690 h4         1 WEM       0.037100
@<TRIPOS>BOND
     1     1     2 1   
     2     1     9 2   
     3     1    15 1   
     4     2     3 1   
     5     2     6 2   
     6     3     5 2   
     7     3     7 1   
     8     4     6 1   
     9     4     8 1   
    10     4    12 2   
    11     5    11 1   
    12     5    37 1   
    13     6    11 1   
    14     7    13 1   
    15     7    38 1   
    16     7    39 1   
    17     8     9 1   
    18     8    10 1   
    19     9    40 1   
    20    10    41 1   
    21    10    42 1   
    22    10    43 1   
    23    11    44 1   
    24    13    14 1   
    25    13    29 1   
    26    14    15 ar  
    27    14    19 ar  
    28    15    16 ar  
    29    16    17 ar  
    30    16    45 1   
    31    17    18 ar  
    32    17    24 1   
    33    18    19 ar  
    34    18    20 1   
    35    19    46 1   
    36    20    21 2   
    37    20    22 1   
    38    22    23 1   
    39    23    47 1   
    40    23    48 1   
    41    23    49 1   
    42    24    25 1   
    43    24    50 1   
    44    24    51 1   
    45    25    26 2   
    46    25    27 2   
    47    25    28 1   
    48    28    52 1   
    49    28    53 1   
    50    28    54 1   
    51    29    30 ar  
    52    29    34 ar  
    53    30    31 ar  
    54    30    36 1   
    55    31    32 ar  
    56    31    55 1   
    57    32    33 ar  
    58    32    35 1   
    59    33    34 ar  
    60    33    56 1   
@<TRIPOS>SUBSTRUCTURE
     1 WEM         1 TEMP              0 ****  ****    0 ROOT
