@<TRIPOS>MOLECULE
WEM
   56    60     1     0     0
SMALL
No Charge or Current Charge


@<TRIPOS>ATOM
      1 C4          -8.8200    18.5920     8.9000 cc         1 WEM      -0.073400
      2 C5         -10.2570    18.6650     8.7850 cc         1 WEM      -0.033800
      3 C6         -11.0460    19.4210     7.8950 cc         1 WEM      -0.186300
      4 C11        -10.5750    17.0610    10.6690 c          1 WEM       0.595600
      5 C7         -12.3670    19.1790     8.1820 cd         1 WEM      -0.121000
      6 C10        -11.0720    17.9630     9.6160 cd         1 WEM      -0.253600
      7 C13        -10.4760    20.2970     6.8300 c3         1 WEM       0.308100
      8 N2          -9.1650    16.9750    10.7280 n          1 WEM      -0.277000
      9 C3          -8.3340    17.7000     9.8560 cd         1 WEM      -0.040400
     10 C1          -8.5710    16.0710    11.7400 c3         1 WEM       0.070300
     11 N8         -12.3870    18.2750     9.2530 na         1 WEM      -0.073000
     12 O12        -11.3210    16.4390    11.4160 o          1 WEM      -0.566000
     13 N14         -9.3790    19.6200     6.1250 nh         1 WEM      -0.794100
     14 C15         -8.0980    19.7050     6.7030 ca         1 WEM       0.265000
     15 C16         -7.8070    19.2490     8.0210 ca         1 WEM       0.015200
     16 C17         -6.4820    19.4390     8.4930 ca         1 WEM      -0.107000
     17 C18         -5.4630    20.0020     7.7010 ca         1 WEM      -0.022300
     18 C19         -5.7590    20.3990     6.3740 ca         1 WEM      -0.112600
     19 C20         -7.0780    20.2590     5.9090 ca         1 WEM      -0.037000
     20 C21         -4.7500    21.0060     5.4290 c          1 WEM       0.619700
     21 O22         -5.0310    21.9320     4.6780 o          1 WEM      -0.468000
     22 O23         -3.5700    20.3090     5.3570 os         1 WEM      -0.451100
     23 C24         -2.5620    20.7730     4.4400 c3         1 WEM       0.152900
     24 C25         -4.0890    20.1930     8.3530 c3         1 WEM      -0.233100
     25 S26         -3.7940    21.8560     8.9950 s6         1 WEM       1.069000
     26 O27         -3.7540    22.7870     7.8610 o          1 WEM      -0.509500
     27 O28         -4.7360    22.0970    10.0950 o          1 WEM      -0.509500
     28 C29         -2.1460    21.7810     9.6950 c3         1 WEM      -0.338100
     29 C30         -9.6360    18.7830     5.0130 ca         1 WEM       0.590900
     30 C31         -8.9240    17.5700     4.7490 ca         1 WEM       0.092000
     31 C32         -9.2410    16.8200     3.6040 ca         1 WEM      -0.130000
     32 C33        -10.2510    17.3030     2.7610 ca         1 WEM       0.089000
     33 C34        -10.9050    18.5100     3.0890 ca         1 WEM       0.340900
     34 N35        -10.6070    19.2420     4.1910 nb         1 WEM      -0.709000
     35 F36        -10.5920    16.6150     1.6470 f          1 WEM      -0.168000
     36 F37         -7.9590    17.1030     5.5810 f          1 WEM      -0.166000
     37 H1         -13.2700    19.5630     7.7200 h4         1 WEM       0.154000
     38 H2         -10.1040    21.2200     7.2960 h1         1 WEM       0.073200
     39 H3         -11.2760    20.6140     6.1470 h1         1 WEM       0.073200
     40 H4          -7.2880    17.4570     9.9960 h4         1 WEM       0.199000
     41 H5          -8.9360    16.3420    12.7390 h1         1 WEM       0.056367
     42 H6          -8.8600    15.0350    11.5220 h1         1 WEM       0.056367
     43 H7          -7.4760    16.1420    11.7360 h1         1 WEM       0.056367
     44 H9         -13.2240    17.9030     9.6940 hn         1 WEM       0.368000
     45 H8          -6.2290    19.1870     9.5180 ha         1 WEM       0.119000
     46 H10         -7.3260    20.5870     4.9030 ha         1 WEM       0.151000
     47 H11         -1.6730    20.1320     4.4940 h1         1 WEM       0.050367
     48 H12         -2.9320    20.7540     3.4070 h1         1 WEM       0.050367
     49 H13         -2.2560    21.8000     4.6820 h1         1 WEM       0.050367
     50 H14         -3.9830    19.5290     9.2170 h1         1 WEM       0.106700
     51 H15         -3.2680    19.9710     7.6690 h1         1 WEM       0.106700
     52 H16         -1.9150    22.7710    10.1010 h1         1 WEM       0.103367
     53 H17         -2.1510    21.0220    10.4840 h1         1 WEM       0.103367
     54 H18         -1.4530    21.5130     8.8900 h1         1 WEM       0.103367
     55 H19         -8.7210    15.8930     3.3810 ha         1 WEM       0.149000
     56 H20        -11.6920    18.9020     2.4460 h4         1 WEM       0.037100
@<TRIPOS>BOND
     1     1     2 1   
     2     1     9 2   
     3     1    15 1   
     4     2     3 1   
     5     2     6 2   
     6     3     5 2   
     7     3     7 1   
     8     4     6 1   
     9     4     8 1   
    10     4    12 2   
    11     5    11 1   
    12     5    37 1   
    13     6    11 1   
    14     7    13 1   
    15     7    38 1   
    16     7    39 1   
    17     8     9 1   
    18     8    10 1   
    19     9    40 1   
    20    10    41 1   
    21    10    42 1   
    22    10    43 1   
    23    11    44 1   
    24    13    14 1   
    25    13    29 1   
    26    14    15 ar  
    27    14    19 ar  
    28    15    16 ar  
    29    16    17 ar  
    30    16    45 1   
    31    17    18 ar  
    32    17    24 1   
    33    18    19 ar  
    34    18    20 1   
    35    19    46 1   
    36    20    21 2   
    37    20    22 1   
    38    22    23 1   
    39    23    47 1   
    40    23    48 1   
    41    23    49 1   
    42    24    25 1   
    43    24    50 1   
    44    24    51 1   
    45    25    26 2   
    46    25    27 2   
    47    25    28 1   
    48    28    52 1   
    49    28    53 1   
    50    28    54 1   
    51    29    30 ar  
    52    29    34 ar  
    53    30    31 ar  
    54    30    36 1   
    55    31    32 ar  
    56    31    55 1   
    57    32    33 ar  
    58    32    35 1   
    59    33    34 ar  
    60    33    56 1   
@<TRIPOS>SUBSTRUCTURE
     1 WEM         1 TEMP              0 ****  ****    0 ROOT
