@<TRIPOS>MOLECULE
WEN
   35    36     1     0     0
SMALL
No Charge or Current Charge


@<TRIPOS>ATOM
      1 C01          5.9410     7.2900    20.0780 cc         1 WEN       0.421300
      2 C02          5.1030     7.5620    21.3270 c6         1 WEN      -0.053300
      3 N03          5.6760     6.4510    19.0820 nd         1 WEN      -0.667000
      4 C05          4.0300     6.4330    21.5090 c6         1 WEN      -0.066900
      5 C06          6.0480     7.5630    22.5770 c6         1 WEN      -0.066900
      6 C07          4.4160     8.9540    21.1420 c3         1 WEN      -0.082100
      7 C10          3.2610     6.5250    22.8530 c6         1 WEN      -0.072900
      8 C11          5.2840     7.6550    23.9250 c6         1 WEN      -0.072900
      9 C15          6.5580     6.7260    15.7440 c          1 WEN       0.723000
     10 O04          7.1000     7.9960    19.9010 os         1 WEN      -0.308000
     11 C08          6.7240     6.6140    18.2020 cd         1 WEN       0.339300
     12 C09          7.5890     7.5470    18.7190 cc         1 WEN       0.066300
     13 C12          6.8280     5.8190    16.9360 c3         1 WEN      -0.251700
     14 C14          4.2340     6.5270    24.0550 c6         1 WEN      -0.074400
     15 O16          7.4990     7.3390    15.2670 o          1 WEN      -0.729500
     16 O17          5.4000     6.8850    15.3930 o          1 WEN      -0.729500
     17 H19          3.3110     6.4560    20.6770 hc         1 WEN       0.054200
     18 H18          4.5200     5.4500    21.4570 hc         1 WEN       0.054200
     19 H20          6.6520     6.6450    22.5760 hc         1 WEN       0.054200
     20 H21          6.7630     8.3940    22.5130 hc         1 WEN       0.054200
     21 H22          3.7910     9.2350    21.9950 hc         1 WEN       0.039033
     22 H24          5.1610     9.7490    21.0120 hc         1 WEN       0.039033
     23 H23          3.7750     8.9610    20.2520 hc         1 WEN       0.039033
     24 H25          2.6350     7.4270    22.8760 hc         1 WEN       0.031950
     25 H26          2.5710     5.6740    22.9410 hc         1 WEN       0.031950
     26 H28          5.9980     7.5900    24.7570 hc         1 WEN       0.031950
     27 H27          4.7950     8.6340    24.0200 hc         1 WEN       0.031950
     28 H32          9.5220     8.4400    19.0520 hc         1 WEN       0.040367
     29 H31          9.4610     7.3240    17.6770 hc         1 WEN       0.040367
     30 H33          8.7330     8.9370    17.5420 hc         1 WEN       0.040367
     31 H29          7.8520     5.4300    16.8940 hc         1 WEN       0.036700
     32 H30          6.0700     5.0280    16.9850 hc         1 WEN       0.036700
     33 H34          3.6720     6.6460    24.9910 hc         1 WEN       0.030700
     34 H35          4.7440     5.5550    24.1180 hc         1 WEN       0.030700
     35 C13          8.8980     8.0910    18.2200 c3         1 WEN      -0.093400
@<TRIPOS>BOND
     1     1     2 1   
     2     1     3 2   
     3     1    10 1   
     4     2     4 1   
     5     2     5 1   
     6     2     6 1   
     7     3    11 1   
     8     4     7 1   
     9     4    17 1   
    10     4    18 1   
    11     5     8 1   
    12     5    19 1   
    13     5    20 1   
    14     6    21 1   
    15     6    22 1   
    16     6    23 1   
    17     7    14 1   
    18     7    24 1   
    19     7    25 1   
    20     8    14 1   
    21     8    26 1   
    22     8    27 1   
    23     9    13 1   
    24     9    15 1   
    25     9    16 1   
    26    10    12 1   
    27    11    12 2   
    28    11    13 1   
    29    12    35 1   
    30    13    31 1   
    31    13    32 1   
    32    14    33 1   
    33    14    34 1   
    34    28    35 1   
    35    29    35 1   
    36    30    35 1   
@<TRIPOS>SUBSTRUCTURE
     1 WEN         1 TEMP              0 ****  ****    0 ROOT
