@<TRIPOS>MOLECULE
WEN
   35    36     1     0     0
SMALL
abcg2


@<TRIPOS>ATOM
      1 C01          6.0050     7.3050    20.1160 cc         1 WEN       0.421300
      2 C02          5.1660     7.6020    21.3250 c6         1 WEN      -0.053300
      3 N03          5.7940     6.4770    19.1440 nd         1 WEN      -0.667000
      4 C05          4.0130     6.5820    21.4020 c6         1 WEN      -0.066900
      5 C06          6.0510     7.4770    22.5910 c6         1 WEN      -0.066900
      6 C07          4.6220     9.0390    21.1750 c3         1 WEN      -0.082100
      7 C10          3.2140     6.6830    22.7020 c6         1 WEN      -0.072900
      8 C11          5.2510     7.5710    23.8910 c6         1 WEN      -0.072900
      9 C15          6.0050     6.3500    15.8770 c          1 WEN       0.723000
     10 O04          7.1610     8.0070    19.9620 os         1 WEN      -0.308000
     11 C08          6.8800     6.6250    18.2690 cd         1 WEN       0.339300
     12 C09          7.7150     7.5610    18.7750 cc         1 WEN       0.066300
     13 C12          6.9590     5.8540    17.0020 c3         1 WEN      -0.251700
     14 C14          4.1190     6.5440    23.9270 c6         1 WEN      -0.074400
     15 O16          5.7390     7.5760    15.8420 o          1 WEN      -0.729500
     16 O17          5.6070     5.4760    15.0670 o          1 WEN      -0.729500
     17 H19          3.3560     6.7120    20.5390 hc         1 WEN       0.054200
     18 H18          4.4360     5.5770    21.3260 hc         1 WEN       0.054200
     19 H20          6.5580     6.5070    22.5580 hc         1 WEN       0.054200
     20 H21          6.8280     8.2430    22.5670 hc         1 WEN       0.054200
     21 H22          3.9910     9.3120    22.0190 hc         1 WEN       0.039033
     22 H24          5.4420     9.7560    21.1180 hc         1 WEN       0.039033
     23 H23          4.0250     9.1230    20.2650 hc         1 WEN       0.039033
     24 H25          2.6860     7.6410    22.7480 hc         1 WEN       0.031950
     25 H26          2.4460     5.9060    22.7090 hc         1 WEN       0.031950
     26 H28          5.9260     7.4210    24.7380 hc         1 WEN       0.031950
     27 H27          4.8330     8.5760    24.0020 hc         1 WEN       0.031950
     28 H32          9.7670     8.0480    19.1080 hc         1 WEN       0.040367
     29 H31          9.3360     7.6930    17.4290 hc         1 WEN       0.040367
     30 H33          8.8790     9.2400    18.1520 hc         1 WEN       0.040367
     31 H29          7.9730     5.9120    16.5960 hc         1 WEN       0.036700
     32 H30          6.7510     4.7990    17.1890 hc         1 WEN       0.036700
     33 H34          3.5360     6.6540    24.8450 hc         1 WEN       0.030700
     34 H35          4.5500     5.5360    23.9420 hc         1 WEN       0.030700
     35 C13          8.9930     8.1690    18.3460 c3         1 WEN      -0.093400
@<TRIPOS>BOND
     1     1     2 1   
     2     1     3 2   
     3     1    10 1   
     4     2     4 1   
     5     2     5 1   
     6     2     6 1   
     7     3    11 1   
     8     4     7 1   
     9     4    17 1   
    10     4    18 1   
    11     5     8 1   
    12     5    19 1   
    13     5    20 1   
    14     6    21 1   
    15     6    22 1   
    16     6    23 1   
    17     7    14 1   
    18     7    24 1   
    19     7    25 1   
    20     8    14 1   
    21     8    26 1   
    22     8    27 1   
    23     9    13 1   
    24     9    15 1   
    25     9    16 1   
    26    10    12 1   
    27    11    12 2   
    28    11    13 1   
    29    12    35 1   
    30    13    31 1   
    31    13    32 1   
    32    14    33 1   
    33    14    34 1   
    34    28    35 1   
    35    29    35 1   
    36    30    35 1   
@<TRIPOS>SUBSTRUCTURE
     1 WEN         1 TEMP              0 ****  ****    0 ROOT
