@<TRIPOS>MOLECULE
WER
   50    53     1     0     0
SMALL
abcg2


@<TRIPOS>ATOM
      1 C01         -3.8140    22.8530   -16.2230 ca         1 WER      -0.190000
      2 C02         -4.1700    23.3400   -14.9730 ca         1 WER       0.498500
      3 N03         -4.5350    22.5250   -13.9820 nb         1 WER      -0.764000
      4 C04         -4.6220    21.2200   -14.1770 ca         1 WER       0.634900
      5 C05         -4.3980    20.6550   -15.4580 ca         1 WER      -0.245500
      6 C06         -3.9540    21.4910   -16.4790 cp         1 WER       0.074000
      7 C07         -3.6930    20.9980   -17.8490 cp         1 WER      -0.074000
      8 C10         -4.1900    21.0790   -20.2100 ca         1 WER      -0.113000
      9 C11         -3.1990    20.1380   -20.4550 ca         1 WER      -0.096000
     10 C13         -2.6970    20.0570   -18.1020 ca         1 WER      -0.080500
     11 C15         -5.6360    21.1200   -11.9990 c3         1 WER       0.198100
     12 C16         -4.8210    19.2820   -15.7480 cc         1 WER       0.479000
     13 C21         -4.1360    24.7550   -14.6240 cc         1 WER      -0.299500
     14 C23         -4.1150    26.8200   -13.2720 cc         1 WER      -0.255000
     15 C24         -4.0830    27.0680   -14.6100 cd         1 WER      -0.140000
     16 C25         -4.0950    25.8880   -15.4050 cd         1 WER      -0.065300
     17 C26         -4.0950    25.9480   -16.9010 c3         1 WER      -0.032800
     18 C27         -3.1670    19.6160   -11.6530 c3         1 WER      -0.104100
     19 C28         -5.0170    18.0660   -12.3860 c3         1 WER      -0.104100
     20 N08         -5.0030    20.4370   -13.1120 nh         1 WER      -0.777300
     21 C09         -4.4300    21.5130   -18.9140 ca         1 WER      -0.080500
     22 C12         -2.4500    19.6340   -19.4000 ca         1 WER      -0.113000
     23 C14         -4.1690    19.2760   -12.7540 c3         1 WER       0.217500
     24 N17         -6.1010    18.9010   -15.8000 na         1 WER      -0.198700
     25 N18         -6.1630    17.6170   -16.0950 nc         1 WER      -0.209800
     26 N19         -4.9560    17.2210   -16.2220 nd         1 WER      -0.050000
     27 N20         -4.0990    18.2180   -16.0140 nd         1 WER      -0.391000
     28 S22         -4.1750    25.1480   -12.9390 ss         1 WER       0.289000
     29 H1          -3.4340    23.4990   -16.9990 ha         1 WER       0.140000
     30 H2          -4.7780    21.4770   -21.0270 ha         1 WER       0.117000
     31 H3          -3.0090    19.8020   -21.4660 ha         1 WER       0.115000
     32 H4          -2.1070    19.6660   -17.2850 ha         1 WER       0.122000
     33 H5          -6.0770    20.3810   -11.3330 h1         1 WER       0.040033
     34 H6          -4.9520    21.7420   -11.4160 h1         1 WER       0.040033
     35 H7          -6.4410    21.7560   -12.3620 h1         1 WER       0.040033
     36 H8          -4.1160    27.5400   -12.4680 h4         1 WER       0.150000
     37 H9          -4.0580    28.0630   -15.0330 ha         1 WER       0.133000
     38 H10         -4.8210    25.2630   -17.3400 hc         1 WER       0.045367
     39 H11         -4.3410    26.9540   -17.2370 hc         1 WER       0.045367
     40 H12         -3.1170    25.7000   -17.3190 hc         1 WER       0.045367
     41 H13         -2.4800    18.7810   -11.5120 hc         1 WER       0.043200
     42 H14         -2.5760    20.4950   -11.9140 hc         1 WER       0.043200
     43 H15         -3.6540    19.8030   -10.6950 hc         1 WER       0.043200
     44 H16         -4.3740    17.2090   -12.1880 hc         1 WER       0.043200
     45 H17         -5.6110    18.2420   -11.4870 hc         1 WER       0.043200
     46 H18         -5.6990    17.7950   -13.1910 hc         1 WER       0.043200
     47 H19         -5.2030    22.2480   -18.7260 ha         1 WER       0.122000
     48 H20         -1.6690    18.9080   -19.5870 ha         1 WER       0.117000
     49 H21         -3.5840    19.0160   -13.6340 h1         1 WER       0.073700
     50 H22         -6.9400    19.4440   -15.6460 hn         1 WER       0.390000
@<TRIPOS>BOND
     1     1     2 ar  
     2     1     6 ar  
     3     1    29 1   
     4     2     3 ar  
     5     2    13 1   
     6     3     4 ar  
     7     4     5 ar  
     8     4    20 1   
     9     5     6 ar  
    10     5    12 1   
    11     6     7 1   
    12     7    10 ar  
    13     7    21 ar  
    14     8     9 ar  
    15     8    21 ar  
    16     8    30 1   
    17     9    22 ar  
    18     9    31 1   
    19    10    22 ar  
    20    10    32 1   
    21    11    20 1   
    22    11    33 1   
    23    11    34 1   
    24    11    35 1   
    25    12    24 1   
    26    12    27 2   
    27    13    16 2   
    28    13    28 1   
    29    14    15 2   
    30    14    28 1   
    31    14    36 1   
    32    15    16 1   
    33    15    37 1   
    34    16    17 1   
    35    17    38 1   
    36    17    39 1   
    37    17    40 1   
    38    18    23 1   
    39    18    41 1   
    40    18    42 1   
    41    18    43 1   
    42    19    23 1   
    43    19    44 1   
    44    19    45 1   
    45    19    46 1   
    46    20    23 1   
    47    21    47 1   
    48    22    48 1   
    49    23    49 1   
    50    24    25 1   
    51    24    50 1   
    52    25    26 2   
    53    26    27 1   
@<TRIPOS>SUBSTRUCTURE
     1 WER         1 TEMP              0 ****  ****    0 ROOT
