@<TRIPOS>MOLECULE
WER
   50    53     1     0     0
SMALL
No Charge or Current Charge


@<TRIPOS>ATOM
      1 C01         -3.4830    22.7540   -16.1760 ca         1 WER      -0.190000
      2 C02         -3.8030    23.2010   -14.8910 ca         1 WER       0.498500
      3 N03         -4.4250    22.4200   -13.9980 nb         1 WER      -0.764000
      4 C04         -4.7610    21.1770   -14.3640 ca         1 WER       0.634900
      5 C05         -4.5240    20.6410   -15.6460 ca         1 WER      -0.245500
      6 C06         -3.8460    21.4590   -16.5900 cp         1 WER       0.074000
      7 C07         -3.5530    21.0390   -17.9920 cp         1 WER      -0.074000
      8 C10         -4.3030    20.1980   -20.1740 ca         1 WER      -0.113000
      9 C11         -2.9930    20.2940   -20.6720 ca         1 WER      -0.096000
     10 C13         -2.2410    21.1410   -18.5170 ca         1 WER      -0.080500
     11 C15         -6.4840    21.0200   -12.5710 c3         1 WER       0.198100
     12 C16         -4.8990    19.2550   -15.9180 cc         1 WER       0.479000
     13 C21         -3.4440    24.5410   -14.4520 cc         1 WER      -0.299500
     14 C23         -2.6620    26.6010   -13.3030 cc         1 WER      -0.255000
     15 C24         -3.3610    26.8470   -14.4610 cd         1 WER      -0.140000
     16 C25         -3.8290    25.6790   -15.1300 cd         1 WER      -0.065300
     17 C26         -4.6460    25.7400   -16.3990 c3         1 WER      -0.032800
     18 C27         -3.5570    20.0660   -11.5750 c3         1 WER      -0.104100
     19 C28         -5.3170    18.2750   -12.0000 c3         1 WER      -0.104100
     20 N08         -5.3370    20.4420   -13.3150 nh         1 WER      -0.777300
     21 C09         -4.5810    20.5710   -18.8480 ca         1 WER      -0.080500
     22 C12         -1.9620    20.7680   -19.8430 ca         1 WER      -0.113000
     23 C14         -4.5000    19.4320   -12.6190 c3         1 WER       0.217500
     24 N17         -6.0380    18.6310   -15.5030 na         1 WER      -0.198700
     25 N18         -6.0750    17.3490   -15.9430 nc         1 WER      -0.209800
     26 N19         -4.9690    17.2120   -16.6220 nd         1 WER      -0.050000
     27 N20         -4.2230    18.3680   -16.6210 nd         1 WER      -0.391000
     28 S22         -2.5710    24.8780   -12.9670 ss         1 WER       0.289000
     29 H1          -2.9640    23.4180   -16.8600 ha         1 WER       0.140000
     30 H2          -5.1040    19.8370   -20.8160 ha         1 WER       0.117000
     31 H3          -2.7780    20.0060   -21.6990 ha         1 WER       0.115000
     32 H4          -1.4340    21.5060   -17.8850 ha         1 WER       0.122000
     33 H5          -7.2250    20.2450   -12.3360 h1         1 WER       0.040033
     34 H6          -6.1490    21.4870   -11.6360 h1         1 WER       0.040033
     35 H7          -6.9910    21.7840   -13.1750 h1         1 WER       0.040033
     36 H8          -2.2070    27.3020   -12.6150 h4         1 WER       0.150000
     37 H9          -3.5460    27.8510   -14.8300 ha         1 WER       0.133000
     38 H10         -5.4260    24.9700   -16.4130 hc         1 WER       0.045367
     39 H11         -5.1460    26.7110   -16.5010 hc         1 WER       0.045367
     40 H12         -4.0130    25.6000   -17.2830 hc         1 WER       0.045367
     41 H13         -2.9030    19.3030   -11.1340 hc         1 WER       0.043200
     42 H14         -2.9190    20.8270   -12.0390 hc         1 WER       0.043200
     43 H15         -4.1250    20.5390   -10.7660 hc         1 WER       0.043200
     44 H16         -4.6460    17.4940   -11.6250 hc         1 WER       0.043200
     45 H17         -5.9290    18.6250   -11.1600 hc         1 WER       0.043200
     46 H18         -5.9780    17.8200   -12.7460 hc         1 WER       0.043200
     47 H19         -5.6020    20.5020   -18.4780 ha         1 WER       0.122000
     48 H20         -0.9480    20.8470   -20.2280 ha         1 WER       0.117000
     49 H21         -3.8490    18.9610   -13.3700 h1         1 WER       0.073700
     50 H22         -6.7570    19.0330   -14.9140 hn         1 WER       0.390000
@<TRIPOS>BOND
     1     1     2 ar  
     2     1     6 ar  
     3     1    29 1   
     4     2     3 ar  
     5     2    13 1   
     6     3     4 ar  
     7     4     5 ar  
     8     4    20 1   
     9     5     6 ar  
    10     5    12 1   
    11     6     7 1   
    12     7    10 ar  
    13     7    21 ar  
    14     8     9 ar  
    15     8    21 ar  
    16     8    30 1   
    17     9    22 ar  
    18     9    31 1   
    19    10    22 ar  
    20    10    32 1   
    21    11    20 1   
    22    11    33 1   
    23    11    34 1   
    24    11    35 1   
    25    12    24 1   
    26    12    27 2   
    27    13    16 2   
    28    13    28 1   
    29    14    15 2   
    30    14    28 1   
    31    14    36 1   
    32    15    16 1   
    33    15    37 1   
    34    16    17 1   
    35    17    38 1   
    36    17    39 1   
    37    17    40 1   
    38    18    23 1   
    39    18    41 1   
    40    18    42 1   
    41    18    43 1   
    42    19    23 1   
    43    19    44 1   
    44    19    45 1   
    45    19    46 1   
    46    20    23 1   
    47    21    47 1   
    48    22    48 1   
    49    23    49 1   
    50    24    25 1   
    51    24    50 1   
    52    25    26 2   
    53    26    27 1   
@<TRIPOS>SUBSTRUCTURE
     1 WER         1 TEMP              0 ****  ****    0 ROOT
