@<TRIPOS>MOLECULE
WET
   24    25     1     0     0
SMALL
abcg2


@<TRIPOS>ATOM
      1 OXT         -1.9920     2.3590    -1.0940 o          1 WET      -0.723000
      2 O           -1.4840     1.4240    -3.0500 o          1 WET      -0.723000
      3 O03         -7.3120    -1.8910    -1.4890 oh         1 WET      -0.551100
      4 N           -1.7620    -0.0230     0.2580 n7         1 WET      -0.811400
      5 CA          -1.2710     0.0650    -1.1130 c6         1 WET       0.020500
      6 C02         -1.7160    -1.1510    -1.9240 c6         1 WET      -0.044100
      7 C03         -3.2040    -1.3470    -1.8300 ca         1 WET      -0.067300
      8 C04         -3.9130    -0.8510    -0.7350 ca         1 WET      -0.056300
      9 C05         -3.2080    -0.0590     0.3450 c6         1 WET       0.205100
     10 C06         -3.9090    -2.0290    -2.8180 ca         1 WET      -0.073000
     11 C07         -5.2890    -1.0430    -0.6480 ca         1 WET      -0.148000
     12 C           -1.6330     1.4070    -1.8110 c          1 WET       0.728000
     13 C09         -5.9770    -1.7320    -1.6380 ca         1 WET       0.110100
     14 C10         -5.2780    -2.2280    -2.7370 ca         1 WET      -0.217000
     15 HA          -0.1750     0.0490    -1.0560 h1         1 WET       0.041700
     16 H02         -1.2040    -2.0410    -1.5400 hc         1 WET       0.039200
     17 H03         -1.4110    -1.0540    -2.9660 hc         1 WET       0.039200
     18 H04         -3.4830    -0.4610     1.3230 h1         1 WET       0.057700
     19 H05         -3.5930     0.9640     0.3230 h1         1 WET       0.057700
     20 H07         -3.3750    -2.4110    -3.6810 ha         1 WET       0.102000
     21 H08         -5.8350    -0.6510     0.2040 ha         1 WET       0.113000
     22 H09         -5.7980    -2.7610    -3.5250 ha         1 WET       0.093000
     23 H11         -7.6750    -2.3790    -2.2360 ho         1 WET       0.448000
     24 H           -1.3930    -0.8750     0.6630 hn         1 WET       0.359000
@<TRIPOS>BOND
     1     1    12 1   
     2     2    12 1   
     3     3    13 1   
     4     3    23 1   
     5     4     5 1   
     6     4     9 1   
     7     4    24 1   
     8     5     6 1   
     9     5    12 1   
    10     5    15 1   
    11     6     7 1   
    12     6    16 1   
    13     6    17 1   
    14     7     8 ar  
    15     7    10 ar  
    16     8     9 1   
    17     8    11 ar  
    18     9    18 1   
    19     9    19 1   
    20    10    14 ar  
    21    10    20 1   
    22    11    13 ar  
    23    11    21 1   
    24    13    14 ar  
    25    14    22 1   
@<TRIPOS>SUBSTRUCTURE
     1 WET         1 TEMP              0 ****  ****    0 ROOT
