@<TRIPOS>MOLECULE
WET
   24    25     1     0     0
SMALL
No Charge or Current Charge


@<TRIPOS>ATOM
      1 OXT         -2.2440     2.2040    -1.6750 o          1 WET      -0.723000
      2 O           -0.1780     1.9840    -2.1410 o          1 WET      -0.723000
      3 O03         -7.3710    -2.1080    -1.3210 oh         1 WET      -0.551100
      4 N           -1.7670    -0.0880     0.2360 n7         1 WET      -0.811400
      5 CA          -1.2210     0.0550    -1.1670 c6         1 WET       0.020500
      6 C02         -1.8170    -1.0370    -2.0950 c6         1 WET      -0.044100
      7 C03         -3.3120    -1.2990    -1.8790 ca         1 WET      -0.067300
      8 C04         -3.9790    -0.8040    -0.7330 ca         1 WET      -0.056300
      9 C05         -3.2450     0.0510     0.3100 c6         1 WET       0.205100
     10 C06         -4.0200    -2.0690    -2.8220 ca         1 WET      -0.073000
     11 C07         -5.3500    -1.0820    -0.5560 ca         1 WET      -0.148000
     12 C           -1.2620     1.4920    -1.8520 c          1 WET       0.728000
     13 C09         -6.0480    -1.8460    -1.5030 ca         1 WET       0.110100
     14 C10         -5.3860    -2.3410    -2.6350 ca         1 WET      -0.217000
     15 HA          -0.1460    -0.1670    -1.0980 h1         1 WET       0.041700
     16 H02         -1.2780    -1.9780    -1.9210 hc         1 WET       0.039200
     17 H03         -1.6250    -0.7750    -3.1450 hc         1 WET       0.039200
     18 H04         -3.5820    -0.2390     1.3160 h1         1 WET       0.057700
     19 H05         -3.5350     1.1020     0.1730 h1         1 WET       0.057700
     20 H07         -3.5090    -2.4580    -3.6990 ha         1 WET       0.102000
     21 H08         -5.8730    -0.7000     0.3170 ha         1 WET       0.113000
     22 H09         -5.9210    -2.9360    -3.3720 ha         1 WET       0.093000
     23 H11         -7.6830    -2.6490    -2.0780 ho         1 WET       0.448000
     24 H           -1.5370    -1.0320     0.5640 hn         1 WET       0.359000
@<TRIPOS>BOND
     1     1    12 1   
     2     2    12 1   
     3     3    13 1   
     4     3    23 1   
     5     4     5 1   
     6     4     9 1   
     7     4    24 1   
     8     5     6 1   
     9     5    12 1   
    10     5    15 1   
    11     6     7 1   
    12     6    16 1   
    13     6    17 1   
    14     7     8 ar  
    15     7    10 ar  
    16     8     9 1   
    17     8    11 ar  
    18     9    18 1   
    19     9    19 1   
    20    10    14 ar  
    21    10    20 1   
    22    11    13 ar  
    23    11    21 1   
    24    13    14 ar  
    25    14    22 1   
@<TRIPOS>SUBSTRUCTURE
     1 WET         1 TEMP              0 ****  ****    0 ROOT
