@<TRIPOS>MOLECULE
WEU
   31    31     1     0     0
SMALL
No Charge or Current Charge


@<TRIPOS>ATOM
      1 C13         46.1110    11.8480    12.5930 c3         1 WEU      -0.171100
      2 C17         47.4530    10.5500    15.7230 ca         1 WEU      -0.175000
      3 C02         47.0750     8.5690    14.3600 ca         1 WEU       0.080000
      4 C03         48.3570     8.7110    13.8040 ca         1 WEU      -0.059000
      5 C04         49.1840     9.7750    14.2090 ca         1 WEU      -0.175000
      6 C05         48.7390    10.7040    15.1700 ca         1 WEU       0.317000
      7 C07         51.0360    11.6210    15.6790 c3         1 WEU       0.212100
      8 C08         48.9920    13.1470    15.8530 c3         1 WEU       0.142800
      9 C09         47.9640    13.7070    14.8270 c          1 WEU       0.571100
     10 C12         46.4040    13.1960    11.9350 c          1 WEU       0.610100
     11 C18         46.6230     9.4860    15.3220 ca         1 WEU      -0.059000
     12 N06         49.5660    11.7840    15.5600 nh         1 WEU      -0.850400
     13 N10         48.3300    13.5390    13.4990 ns         1 WEU      -0.370500
     14 N11         47.5110    13.9020    12.3790 ns         1 WEU      -0.376500
     15 O15         45.7080    13.6380    11.0330 o          1 WEU      -0.583100
     16 O16         46.9110    14.2450    15.1530 o          1 WEU      -0.578100
     17 H132        45.2800    11.3190    12.1140 hc         1 WEU       0.065367
     18 H1          47.0240    11.2440    12.6080 hc         1 WEU       0.065367
     19 H131        45.9100    12.0080    13.6580 hc         1 WEU       0.065367
     20 H171        47.0930    11.2470    16.4720 ha         1 WEU       0.119000
     21 H031        48.7060     8.0010    13.0580 ha         1 WEU       0.129500
     22 H041        50.1680     9.8800    13.7620 ha         1 WEU       0.119000
     23 H072        51.4370    12.2720    16.4680 h1         1 WEU       0.042700
     24 H073        51.2900    10.5860    15.9430 h1         1 WEU       0.042700
     25 H071        51.5300    11.8740    14.7310 h1         1 WEU       0.042700
     26 H082        49.7990    13.8900    15.8940 h1         1 WEU       0.081700
     27 H081        48.5070    13.1490    16.8380 h1         1 WEU       0.081700
     28 H181        45.6320     9.3750    15.7540 ha         1 WEU       0.129500
     29 H101        49.1870    13.0190    13.3140 hn         1 WEU       0.355500
     30 H111        47.6810    14.8120    11.9580 hn         1 WEU       0.334500
     31 Cl01        46.0370     7.2450    13.8500 cl         1 WEU      -0.211000
@<TRIPOS>BOND
     1     1    10 1   
     2     1    17 1   
     3     1    18 1   
     4     1    19 1   
     5     2     6 ar  
     6     2    11 ar  
     7     2    20 1   
     8     3     4 ar  
     9     3    11 ar  
    10     3    31 1   
    11     4     5 ar  
    12     4    21 1   
    13     5     6 ar  
    14     5    22 1   
    15     6    12 1   
    16     7    12 1   
    17     7    23 1   
    18     7    24 1   
    19     7    25 1   
    20     8     9 1   
    21     8    12 1   
    22     8    26 1   
    23     8    27 1   
    24     9    13 1   
    25     9    16 2   
    26    10    14 1   
    27    10    15 2   
    28    11    28 1   
    29    13    14 1   
    30    13    29 1   
    31    14    30 1   
@<TRIPOS>SUBSTRUCTURE
     1 WEU         1 TEMP              0 ****  ****    0 ROOT
