@<TRIPOS>MOLECULE
WEU
   31    31     1     0     0
SMALL
abcg2


@<TRIPOS>ATOM
      1 C13         45.6550    12.7150    12.6340 c3         1 WEU      -0.171100
      2 C17         47.4360    10.3510    15.1420 ca         1 WEU      -0.175000
      3 C02         47.5170     8.0090    14.6200 ca         1 WEU       0.080000
      4 C03         48.8960     8.0800    14.4920 ca         1 WEU      -0.059000
      5 C04         49.5490     9.2870    14.6920 ca         1 WEU      -0.175000
      6 C05         48.8360    10.4550    15.0220 ca         1 WEU       0.317000
      7 C07         50.9360    11.7360    15.0940 c3         1 WEU       0.212100
      8 C08         48.8010    12.7630    15.8440 c3         1 WEU       0.142800
      9 C09         47.9990    13.6810    14.9240 c          1 WEU       0.571100
     10 C12         46.3190    13.9830    12.1660 c          1 WEU       0.610100
     11 C18         46.7860     9.1430    14.9440 ca         1 WEU      -0.059000
     12 N06         49.4860    11.6650    15.1990 nh         1 WEU      -0.850400
     13 N10         48.1830    13.4590    13.6000 ns         1 WEU      -0.370500
     14 N11         47.5750    14.2290    12.6400 ns         1 WEU      -0.376500
     15 O15         45.7980    14.7720    11.3880 o          1 WEU      -0.583100
     16 O16         47.2660    14.5490    15.3730 o          1 WEU      -0.578100
     17 H132        44.7300    12.5820    12.0800 hc         1 WEU       0.065367
     18 H1          46.3060    11.8520    12.4890 hc         1 WEU       0.065367
     19 H131        45.4320    12.7800    13.7000 hc         1 WEU       0.065367
     20 H171        46.8340    11.2160    15.3770 ha         1 WEU       0.119000
     21 H031        49.4670     7.1960    14.2420 ha         1 WEU       0.129500
     22 H041        50.6240     9.3100    14.5970 ha         1 WEU       0.119000
     23 H072        51.2370    12.7790    15.1520 h1         1 WEU       0.042700
     24 H073        51.4370    11.1780    15.8930 h1         1 WEU       0.042700
     25 H071        51.2730    11.3430    14.1330 h1         1 WEU       0.042700
     26 H082        49.5330    13.3990    16.3430 h1         1 WEU       0.081700
     27 H081        48.1150    12.4150    16.6190 h1         1 WEU       0.081700
     28 H181        45.7100     9.0910    15.0390 ha         1 WEU       0.129500
     29 H101        48.8110    12.7280    13.2960 hn         1 WEU       0.355500
     30 H111        48.0060    15.1180    12.4180 hn         1 WEU       0.334500
     31 CL01        46.6930     6.4790    14.3690 cl         1 WEU      -0.211000
@<TRIPOS>BOND
     1     1    10 1   
     2     1    17 1   
     3     1    18 1   
     4     1    19 1   
     5     2     6 ar  
     6     2    11 ar  
     7     2    20 1   
     8     3     4 ar  
     9     3    11 ar  
    10     3    31 1   
    11     4     5 ar  
    12     4    21 1   
    13     5     6 ar  
    14     5    22 1   
    15     6    12 1   
    16     7    12 1   
    17     7    23 1   
    18     7    24 1   
    19     7    25 1   
    20     8     9 1   
    21     8    12 1   
    22     8    26 1   
    23     8    27 1   
    24     9    13 1   
    25     9    16 2   
    26    10    14 1   
    27    10    15 2   
    28    11    28 1   
    29    13    14 1   
    30    13    29 1   
    31    14    30 1   
@<TRIPOS>SUBSTRUCTURE
     1 WEU         1 TEMP              0 ****  ****    0 ROOT
