@<TRIPOS>MOLECULE
WEV
  102   103     1     0     0
SMALL
abcg2


@<TRIPOS>ATOM
      1 C43        280.9630   203.1800   169.6050 c3         1 WEV       0.145900
      2 C01        283.9960   210.1210   165.8410 c3         1 WEV      -0.079100
      3 C02        284.9060   209.7690   167.0250 c3         1 WEV      -0.045700
      4 C03        284.9610   208.2540   167.3050 c3         1 WEV      -0.038200
      5 C04        283.7790   207.5460   167.9200 c2         1 WEV      -0.083400
      6 C05        283.9970   206.6220   168.8720 ce         1 WEV      -0.202000
      7 C06        282.9970   205.8360   169.5660 ce         1 WEV      -0.153000
      8 C07        283.2880   204.9070   170.4820 c2         1 WEV      -0.273200
      9 C08        282.2420   204.1960   171.3020 c3         1 WEV       0.186500
     10 C09        281.9960   204.9790   172.6080 c3         1 WEV       0.220300
     11 C11        284.1850   205.9290   173.2440 c          1 WEV       0.599300
     12 C13        283.8450   207.3120   172.7820 ce         1 WEV      -0.040100
     13 C14        284.7040   207.9100   171.9440 cf         1 WEV      -0.130000
     14 C15        284.6170   209.1920   171.2570 cf         1 WEV      -0.076200
     15 C16        285.5180   209.3990   170.2800 c2         1 WEV      -0.190200
     16 C17        285.6360   210.6050   169.4000 c3         1 WEV      -0.059500
     17 C18        284.5940   210.6410   168.2480 c3         1 WEV       0.185300
     18 C20        287.0720   210.7910   168.9180 c3         1 WEV      -0.083100
     19 C21        283.5540   210.1870   171.6220 c3         1 WEV      -0.044900
     20 C23        282.4700   208.0240   174.5470 c3         1 WEV       0.141900
     21 C24        280.9120   204.4580   173.5710 c3         1 WEV      -0.050700
     22 C25        279.5300   204.9920   173.1810 c3         1 WEV      -0.087100
     23 C26        280.8870   202.9330   173.7450 c3         1 WEV       0.192300
     24 C27        279.9160   202.4820   174.8610 c3         1 WEV      -0.103700
     25 C28        280.4410   202.8440   176.2490 c3         1 WEV      -0.087100
     26 C29        279.5680   200.9800   174.7520 c6         1 WEV       0.414000
     27 C30        278.6330   200.5190   175.8710 c6         1 WEV      -0.178400
     28 C31        278.0570   199.1330   175.6080 c6         1 WEV       0.176300
     29 C32        277.3940   199.0850   174.2370 c6         1 WEV      -0.087700
     30 C33        278.4190   199.5430   173.1940 c6         1 WEV       0.182300
     31 C35        277.8870   199.6370   171.7620 c3         1 WEV      -0.047700
     32 C36        276.7410   200.6310   171.6000 c3         1 WEV      -0.085600
     33 C37        279.0120   199.9540   170.7800 c3         1 WEV      -0.085600
     34 C38        276.8580   197.6940   173.9180 c3         1 WEV      -0.082100
     35 O10        283.2400   204.9990   173.3310 os         1 WEV      -0.446100
     36 O12        285.3090   205.6250   173.5630 o          1 WEV      -0.440000
     37 O19        284.4920   211.9700   167.7700 oh         1 WEV      -0.664000
     38 O22        282.6540   207.8450   173.1500 os         1 WEV      -0.352100
     39 O34        278.9460   200.8220   173.5170 os         1 WEV      -0.452000
     40 O39        277.0980   198.7960   176.5870 oh         1 WEV      -0.654000
     41 O40        280.7480   200.1880   174.7290 oh         1 WEV      -0.700000
     42 O41        282.1980   202.4780   174.0020 oh         1 WEV      -0.656000
     43 O42        281.0030   204.1260   170.6470 os         1 WEV      -0.458000
     44 H1         279.9450   203.1550   169.2200 h1         1 WEV       0.031700
     45 H2         281.6390   203.4340   168.7830 h1         1 WEV       0.031700
     46 H3         281.2240   202.1770   169.9620 h1         1 WEV       0.031700
     47 H4         284.2610   211.0860   165.4140 hc         1 WEV       0.035367
     48 H5         284.1040   209.3780   165.0490 hc         1 WEV       0.035367
     49 H6         282.9410   210.1630   166.1100 hc         1 WEV       0.035367
     50 H7         285.9230   210.0160   166.6970 hc         1 WEV       0.052700
     51 H8         285.1560   207.7820   166.3340 hc         1 WEV       0.045700
     52 H9         285.8450   208.0340   167.9080 hc         1 WEV       0.045700
     53 H10        285.0230   206.4520   169.1890 ha         1 WEV       0.166000
     54 H11        281.9520   206.0410   169.3580 ha         1 WEV       0.181000
     55 H13        284.3280   204.6790   170.7020 ha         1 WEV       0.183000
     56 H15        282.6040   203.1890   171.5530 h1         1 WEV       0.073700
     57 H16        281.7130   205.9930   172.3220 h1         1 WEV       0.069700
     58 H17        285.5720   207.3170   171.6780 ha         1 WEV       0.191000
     59 H18        286.2430   208.6090   170.0970 ha         1 WEV       0.171000
     60 H19        285.3920   211.4760   170.0210 hc         1 WEV       0.046700
     61 H20        283.6290   210.3210   168.6700 h1         1 WEV       0.038700
     62 H21        287.7390   210.9710   169.7620 hc         1 WEV       0.038700
     63 H22        287.4430   209.9080   168.3940 hc         1 WEV       0.038700
     64 H23        287.1570   211.6430   168.2440 hc         1 WEV       0.038700
     65 H24        283.5280   210.3680   172.6970 hc         1 WEV       0.042033
     66 H25        283.7130   211.1450   171.1310 hc         1 WEV       0.042033
     67 H26        282.5630   209.8360   171.3330 hc         1 WEV       0.042033
     68 H27        281.4700   208.4300   174.6850 h1         1 WEV       0.040367
     69 H28        282.5400   207.0840   175.1020 h1         1 WEV       0.040367
     70 H29        283.2000   208.7280   174.9540 h1         1 WEV       0.040367
     71 H30        281.1640   204.9220   174.5320 hc         1 WEV       0.057700
     72 H31        278.8420   204.9470   174.0250 hc         1 WEV       0.040700
     73 H32        279.5870   206.0370   172.8780 hc         1 WEV       0.040700
     74 H33        279.0870   204.4300   172.3600 hc         1 WEV       0.040700
     75 H34        280.5250   202.5160   172.7940 h1         1 WEV       0.053700
     76 H35        278.9660   203.0050   174.7180 hc         1 WEV       0.069700
     77 H36        279.6780   202.7010   177.0130 hc         1 WEV       0.038033
     78 H37        281.3120   202.2540   176.5370 hc         1 WEV       0.038033
     79 H38        280.7350   203.8920   176.2980 hc         1 WEV       0.038033
     80 H39        277.8110   201.2380   175.9560 hc         1 WEV       0.061200
     81 H40        279.1550   200.5260   176.8330 hc         1 WEV       0.061200
     82 H41        278.8770   198.3980   175.6130 h1         1 WEV       0.032700
     83 H42        276.5570   199.7960   174.2520 hc         1 WEV       0.071700
     84 H43        279.2340   198.8020   173.1860 h1         1 WEV       0.046700
     85 H44        277.5110   198.6410   171.5100 hc         1 WEV       0.048700
     86 H45        275.8920   200.3980   172.2440 hc         1 WEV       0.036200
     87 H46        277.0630   201.6490   171.8240 hc         1 WEV       0.036200
     88 H47        276.3770   200.6220   170.5720 hc         1 WEV       0.036200
     89 H48        279.8390   199.2470   170.8740 hc         1 WEV       0.036200
     90 H49        278.6490   199.9020   169.7530 hc         1 WEV       0.036200
     91 H50        279.4100   200.9570   170.9370 hc         1 WEV       0.036200
     92 H51        276.2250   197.3230   174.7220 hc         1 WEV       0.039700
     93 H52        276.2580   197.6900   173.0080 hc         1 WEV       0.039700
     94 H53        277.6740   196.9800   173.7800 hc         1 WEV       0.039700
     95 H54        281.6580   207.1430   167.7150 hc         1 WEV       0.042033
     96 H55        282.0810   208.8440   167.6370 hc         1 WEV       0.042033
     97 H56        282.4250   207.7980   166.2780 hc         1 WEV       0.042033
     98 H57        284.1930   212.5290   168.4950 ho         1 WEV       0.439000
     99 H58        277.5440   198.7340   177.4380 ho         1 WEV       0.442000
    100 H59        280.9890   199.9300   175.6260 ho         1 WEV       0.459000
    101 H60        282.1220   201.5290   174.1660 ho         1 WEV       0.458000
    102 C44        282.4160   207.8400   167.3680 c3         1 WEV      -0.056900
@<TRIPOS>BOND
     1     1    43 1   
     2     1    44 1   
     3     1    45 1   
     4     1    46 1   
     5     2     3 1   
     6     2    47 1   
     7     2    48 1   
     8     2    49 1   
     9     3     4 1   
    10     3    17 1   
    11     3    50 1   
    12     4     5 1   
    13     4    51 1   
    14     4    52 1   
    15     5     6 2   
    16     5   102 1   
    17     6     7 1   
    18     6    53 1   
    19     7     8 2   
    20     7    54 1   
    21     8     9 1   
    22     8    55 1   
    23     9    10 1   
    24     9    43 1   
    25     9    56 1   
    26    10    21 1   
    27    10    35 1   
    28    10    57 1   
    29    11    12 1   
    30    11    35 1   
    31    11    36 2   
    32    12    13 2   
    33    12    38 1   
    34    13    14 1   
    35    13    58 1   
    36    14    15 2   
    37    14    19 1   
    38    15    16 1   
    39    15    59 1   
    40    16    17 1   
    41    16    18 1   
    42    16    60 1   
    43    17    37 1   
    44    17    61 1   
    45    18    62 1   
    46    18    63 1   
    47    18    64 1   
    48    19    65 1   
    49    19    66 1   
    50    19    67 1   
    51    20    38 1   
    52    20    68 1   
    53    20    69 1   
    54    20    70 1   
    55    21    22 1   
    56    21    23 1   
    57    21    71 1   
    58    22    72 1   
    59    22    73 1   
    60    22    74 1   
    61    23    24 1   
    62    23    42 1   
    63    23    75 1   
    64    24    25 1   
    65    24    26 1   
    66    24    76 1   
    67    25    77 1   
    68    25    78 1   
    69    25    79 1   
    70    26    27 1   
    71    26    39 1   
    72    26    41 1   
    73    27    28 1   
    74    27    80 1   
    75    27    81 1   
    76    28    29 1   
    77    28    40 1   
    78    28    82 1   
    79    29    30 1   
    80    29    34 1   
    81    29    83 1   
    82    30    31 1   
    83    30    39 1   
    84    30    84 1   
    85    31    32 1   
    86    31    33 1   
    87    31    85 1   
    88    32    86 1   
    89    32    87 1   
    90    32    88 1   
    91    33    89 1   
    92    33    90 1   
    93    33    91 1   
    94    34    92 1   
    95    34    93 1   
    96    34    94 1   
    97    37    98 1   
    98    40    99 1   
    99    41   100 1   
   100    42   101 1   
   101    95   102 1   
   102    96   102 1   
   103    97   102 1   
@<TRIPOS>SUBSTRUCTURE
     1 WEV         1 TEMP              0 ****  ****    0 ROOT
