@<TRIPOS>MOLECULE
WEV
  102   103     1     0     0
SMALL
No Charge or Current Charge


@<TRIPOS>ATOM
      1 C43        280.3900   203.4730   169.8570 c3         1 WEV       0.145900
      2 C01        283.3480   210.6370   166.0250 c3         1 WEV      -0.079100
      3 C02        284.4450   209.8990   166.8470 c3         1 WEV      -0.045700
      4 C03        284.1620   208.3610   166.9770 c3         1 WEV      -0.038200
      5 C04        283.1270   207.8630   167.9970 c2         1 WEV      -0.083400
      6 C05        283.3950   206.8080   168.8080 ce         1 WEV      -0.202000
      7 C06        282.4930   206.2190   169.8110 ce         1 WEV      -0.153000
      8 C07        282.7780   205.0830   170.4890 c2         1 WEV      -0.273200
      9 C08        281.8920   204.4220   171.5360 c3         1 WEV       0.186500
     10 C09        281.8440   205.1950   172.9090 c3         1 WEV       0.220300
     11 C11        284.2560   205.5990   173.0990 c          1 WEV       0.599300
     12 C13        284.1630   207.0510   172.6330 ce         1 WEV      -0.040100
     13 C14        284.9640   207.4800   171.6030 cf         1 WEV      -0.130000
     14 C15        285.0840   208.8010   170.9630 cf         1 WEV      -0.076200
     15 C16        285.7960   208.9030   169.8080 c2         1 WEV      -0.190200
     16 C17        286.0620   210.1470   168.9720 c3         1 WEV      -0.059500
     17 C18        284.8000   210.6460   168.1850 c3         1 WEV       0.185300
     18 C20        287.3300   209.9790   168.0960 c3         1 WEV      -0.083100
     19 C21        284.4190   210.0060   171.6250 c3         1 WEV      -0.044900
     20 C23        283.0410   207.8040   174.7100 c3         1 WEV       0.141900
     21 C24        280.7110   204.7520   173.9100 c3         1 WEV      -0.050700
     22 C25        279.3780   205.4960   173.6070 c3         1 WEV      -0.087100
     23 C26        280.5200   203.1950   174.0300 c3         1 WEV       0.192300
     24 C27        279.3830   202.6970   174.9950 c3         1 WEV      -0.103700
     25 C28        279.5340   203.2600   176.4430 c3         1 WEV      -0.087100
     26 C29        279.1870   201.1340   174.9530 c6         1 WEV       0.414000
     27 C30        277.8830   200.6590   175.6450 c6         1 WEV      -0.178400
     28 C31        277.5950   199.1630   175.3720 c6         1 WEV       0.176300
     29 C32        277.6330   198.8510   173.8470 c6         1 WEV      -0.087700
     30 C33        278.9940   199.3590   173.2740 c6         1 WEV       0.182300
     31 C35        279.1910   199.2010   171.7250 c3         1 WEV      -0.047700
     32 C36        278.1550   199.9710   170.8660 c3         1 WEV      -0.085600
     33 C37        280.6310   199.5680   171.2920 c3         1 WEV      -0.085600
     34 C38        277.3960   197.3360   173.5640 c3         1 WEV      -0.082100
     35 O10        283.1100   205.0450   173.6130 os         1 WEV      -0.446100
     36 O12        285.2750   204.9320   172.9830 o          1 WEV      -0.440000
     37 O19        284.9890   212.0430   167.9050 oh         1 WEV      -0.664000
     38 O22        283.3520   207.9640   173.3110 os         1 WEV      -0.352100
     39 O34        279.1430   200.7670   173.5680 os         1 WEV      -0.452000
     40 O39        276.3160   198.8340   175.9240 oh         1 WEV      -0.654000
     41 O40        280.3260   200.5100   175.5370 oh         1 WEV      -0.700000
     42 O41        281.7380   202.5660   174.4350 oh         1 WEV      -0.656000
     43 O42        280.5600   204.3570   170.9810 os         1 WEV      -0.458000
     44 H1         279.3350   203.4370   169.5590 h1         1 WEV       0.031700
     45 H2         280.9740   203.8130   168.9920 h1         1 WEV       0.031700
     46 H3         280.7060   202.4540   170.1100 h1         1 WEV       0.031700
     47 H4         283.7450   211.5670   165.6000 hc         1 WEV       0.035367
     48 H5         283.0000   210.0220   165.1860 hc         1 WEV       0.035367
     49 H6         282.4860   210.9030   166.6450 hc         1 WEV       0.035367
     50 H7         285.3350   209.9660   166.2110 hc         1 WEV       0.052700
     51 H8         283.8790   207.9830   165.9880 hc         1 WEV       0.045700
     52 H9         285.1220   207.8740   167.1810 hc         1 WEV       0.045700
     53 H10        284.3700   206.3260   168.7330 ha         1 WEV       0.166000
     54 H11        281.5560   206.7350   170.0210 ha         1 WEV       0.181000
     55 H13        283.7080   204.5450   170.2990 ha         1 WEV       0.183000
     56 H15        282.2630   203.4070   171.7370 h1         1 WEV       0.073700
     57 H16        281.6700   206.2510   172.6740 h1         1 WEV       0.069700
     58 H17        285.5880   206.7090   171.1490 ha         1 WEV       0.191000
     59 H18        286.2470   208.0010   169.3950 ha         1 WEV       0.171000
     60 H19        286.3280   210.9420   169.6790 hc         1 WEV       0.046700
     61 H20        283.9350   210.5430   168.8520 h1         1 WEV       0.038700
     62 H21        288.2040   209.7780   168.7260 hc         1 WEV       0.038700
     63 H22        287.2260   209.1450   167.3920 hc         1 WEV       0.038700
     64 H23        287.5340   210.8910   167.5220 hc         1 WEV       0.038700
     65 H24        284.6970   210.0790   172.6830 hc         1 WEV       0.042033
     66 H25        284.6950   210.9620   171.1700 hc         1 WEV       0.042033
     67 H26        283.3270   209.9330   171.5630 hc         1 WEV       0.042033
     68 H27        282.5950   208.7270   175.1010 h1         1 WEV       0.040367
     69 H28        282.3210   207.0000   174.8840 h1         1 WEV       0.040367
     70 H29        283.9500   207.5980   175.2900 h1         1 WEV       0.040367
     71 H30        281.0290   205.1120   174.8950 hc         1 WEV       0.057700
     72 H31        278.6890   205.4340   174.4570 hc         1 WEV       0.040700
     73 H32        279.5560   206.5620   173.4190 hc         1 WEV       0.040700
     74 H33        278.8690   205.0750   172.7330 hc         1 WEV       0.040700
     75 H34        280.2560   202.8390   173.0260 h1         1 WEV       0.053700
     76 H35        278.4490   203.1170   174.6040 hc         1 WEV       0.069700
     77 H36        278.7000   202.9470   177.0810 hc         1 WEV       0.038033
     78 H37        280.4660   202.9210   176.9090 hc         1 WEV       0.038033
     79 H38        279.5340   204.3550   176.4500 hc         1 WEV       0.038033
     80 H39        277.0430   201.2630   175.2790 hc         1 WEV       0.061200
     81 H40        277.9380   200.8270   176.7280 hc         1 WEV       0.061200
     82 H41        278.3740   198.5620   175.8650 h1         1 WEV       0.032700
     83 H42        276.8120   199.3970   173.3650 hc         1 WEV       0.071700
     84 H43        279.8080   198.8020   173.7610 h1         1 WEV       0.046700
     85 H44        279.0770   198.1400   171.4750 hc         1 WEV       0.048700
     86 H45        277.1350   199.6290   171.0750 hc         1 WEV       0.036200
     87 H46        278.2040   201.0500   171.0610 hc         1 WEV       0.036200
     88 H47        278.3440   199.8110   169.7980 hc         1 WEV       0.036200
     89 H48        281.3630   198.9530   171.8300 hc         1 WEV       0.036200
     90 H49        280.7720   199.3980   170.2180 hc         1 WEV       0.036200
     91 H50        280.8520   200.6200   171.5050 hc         1 WEV       0.036200
     92 H51        276.4650   196.9800   174.0220 hc         1 WEV       0.039700
     93 H52        277.3110   197.1320   172.4910 hc         1 WEV       0.039700
     94 H53        278.2150   196.7230   173.9600 hc         1 WEV       0.039700
     95 H54        280.9700   207.9890   168.3740 hc         1 WEV       0.042033
     96 H55        281.8150   209.5340   168.4670 hc         1 WEV       0.042033
     97 H56        281.4800   208.7630   166.8990 hc         1 WEV       0.042033
     98 H57        285.1080   212.4930   168.7690 ho         1 WEV       0.439000
     99 H58        276.3810   198.9760   176.8930 ho         1 WEV       0.442000
    100 H59        280.1420   200.4710   176.4990 ho         1 WEV       0.459000
    101 H60        281.4430   201.6890   174.7920 ho         1 WEV       0.458000
    102 C44        281.7820   208.5760   167.9360 c3         1 WEV      -0.056900
@<TRIPOS>BOND
     1     1    43 1   
     2     1    44 1   
     3     1    45 1   
     4     1    46 1   
     5     2     3 1   
     6     2    47 1   
     7     2    48 1   
     8     2    49 1   
     9     3     4 1   
    10     3    17 1   
    11     3    50 1   
    12     4     5 1   
    13     4    51 1   
    14     4    52 1   
    15     5     6 2   
    16     5   102 1   
    17     6     7 1   
    18     6    53 1   
    19     7     8 2   
    20     7    54 1   
    21     8     9 1   
    22     8    55 1   
    23     9    10 1   
    24     9    43 1   
    25     9    56 1   
    26    10    21 1   
    27    10    35 1   
    28    10    57 1   
    29    11    12 1   
    30    11    35 1   
    31    11    36 2   
    32    12    13 2   
    33    12    38 1   
    34    13    14 1   
    35    13    58 1   
    36    14    15 2   
    37    14    19 1   
    38    15    16 1   
    39    15    59 1   
    40    16    17 1   
    41    16    18 1   
    42    16    60 1   
    43    17    37 1   
    44    17    61 1   
    45    18    62 1   
    46    18    63 1   
    47    18    64 1   
    48    19    65 1   
    49    19    66 1   
    50    19    67 1   
    51    20    38 1   
    52    20    68 1   
    53    20    69 1   
    54    20    70 1   
    55    21    22 1   
    56    21    23 1   
    57    21    71 1   
    58    22    72 1   
    59    22    73 1   
    60    22    74 1   
    61    23    24 1   
    62    23    42 1   
    63    23    75 1   
    64    24    25 1   
    65    24    26 1   
    66    24    76 1   
    67    25    77 1   
    68    25    78 1   
    69    25    79 1   
    70    26    27 1   
    71    26    39 1   
    72    26    41 1   
    73    27    28 1   
    74    27    80 1   
    75    27    81 1   
    76    28    29 1   
    77    28    40 1   
    78    28    82 1   
    79    29    30 1   
    80    29    34 1   
    81    29    83 1   
    82    30    31 1   
    83    30    39 1   
    84    30    84 1   
    85    31    32 1   
    86    31    33 1   
    87    31    85 1   
    88    32    86 1   
    89    32    87 1   
    90    32    88 1   
    91    33    89 1   
    92    33    90 1   
    93    33    91 1   
    94    34    92 1   
    95    34    93 1   
    96    34    94 1   
    97    37    98 1   
    98    40    99 1   
    99    41   100 1   
   100    42   101 1   
   101    95   102 1   
   102    96   102 1   
   103    97   102 1   
@<TRIPOS>SUBSTRUCTURE
     1 WEV         1 TEMP              0 ****  ****    0 ROOT
