@<TRIPOS>MOLECULE
WEW
   68    72     1     0     0
SMALL
abcg2


@<TRIPOS>ATOM
      1 C15         11.6480    23.1040     7.7770 ca         1 WEW      -0.186000
      2 C16         12.9530    21.0000     7.7110 cp         1 WEW      -0.032000
      3 C17         14.0510    20.6350     6.9310 ca         1 WEW       0.143000
      4 C18         15.0820    19.8370     7.4300 cp         1 WEW      -0.027000
      5 C19         14.9810    19.3870     8.7450 ca         1 WEW      -0.092000
      6 C20         13.9030    19.7360     9.5410 ca         1 WEW      -0.113000
      7 C21         12.9030    20.5440     9.0270 ca         1 WEW      -0.093000
      8 C22         16.2680    19.4560     6.6290 cp         1 WEW      -0.041000
      9 C23         16.5270    18.1130     6.3850 ca         1 WEW      -0.092000
     10 C24         17.6580    17.7200     5.6810 ca         1 WEW       0.052100
     11 C25         18.5500    18.6870     5.2080 ca         1 WEW       0.062100
     12 C26         19.6500    17.0290     4.0000 c6         1 WEW       0.117600
     13 C27         19.1800    16.0680     5.0650 c6         1 WEW       0.118600
     14 C28         18.3000    20.0290     5.4660 ca         1 WEW      -0.110000
     15 C1          11.1780    25.6350     8.8860 c3         1 WEW       0.149900
     16 C2          10.5930    23.9090     7.3570 ca         1 WEW       0.135100
     17 C3           9.7070    23.4590     6.3680 ca         1 WEW      -0.110300
     18 C4           8.5640    24.3320     5.9080 c3         1 WEW       0.228100
     19 N1           7.5240    23.5810     5.2500 n3         1 WEW      -0.723600
     20 C5           6.5970    24.3950     4.4770 c5         1 WEW       0.169800
     21 C6           5.3490    23.5090     4.3020 c5         1 WEW      -0.068400
     22 C7           5.6110    22.2790     5.1820 c5         1 WEW      -0.151700
     23 C8           6.6950    22.7890     6.1340 c5         1 WEW       0.164800
     24 C9           6.1340    21.0850     4.3960 c          1 WEW       0.611100
     25 O2           6.5050    21.1520     3.2340 o          1 WEW      -0.585100
     26 N2           6.1780    19.9400     5.1050 ns         1 WEW      -0.517900
     27 C10          6.6550    18.6850     4.5760 c3         1 WEW       0.100000
     28 C11          5.5460    17.9010     3.8890 c3         1 WEW       0.137600
     29 O3           6.0920    16.6810     3.4460 oh         1 WEW      -0.659000
     30 C12          9.9340    22.2110     5.8070 ca         1 WEW      -0.064000
     31 C13         10.9920    21.4070     6.2100 ca         1 WEW      -0.124000
     32 C14         11.8520    21.8510     7.2040 cp         1 WEW      -0.006000
     33 CL1         14.1330    21.1890     5.2900 cl         1 WEW      -0.186000
     34 O4          19.6570    18.3550     4.5050 os         1 WEW      -0.329100
     35 O5          17.8620    16.3980     5.4750 os         1 WEW      -0.329100
     36 C29         17.1720    20.4130     6.1720 ca         1 WEW      -0.085000
     37 H1          12.3300    23.4420     8.5460 ha         1 WEW       0.119000
     38 H2          15.7730    18.7670     9.1460 ha         1 WEW       0.122000
     39 H3          13.8450    19.3830    10.5620 ha         1 WEW       0.119000
     40 H4          12.0580    20.8220     9.6430 ha         1 WEW       0.120000
     41 H5          15.8450    17.3500     6.7420 ha         1 WEW       0.131000
     42 H6          19.0050    16.9660     3.1170 h1         1 WEW       0.067700
     43 H7          20.6700    16.7940     3.6970 h1         1 WEW       0.067700
     44 H8          19.1510    15.0510     4.6750 h1         1 WEW       0.066700
     45 H9          19.8570    16.0890     5.9250 h1         1 WEW       0.066700
     46 H10         19.0020    20.7730     5.1100 ha         1 WEW       0.129000
     47 H11         10.7940    26.6190     9.1420 h1         1 WEW       0.039700
     48 H12         11.1410    25.0020     9.7770 h1         1 WEW       0.039700
     49 H13         12.2200    25.7370     8.5700 h1         1 WEW       0.039700
     50 H14          8.9520    25.0740     5.2020 h1         1 WEW       0.047200
     51 H15          8.1630    24.9090     6.7560 h1         1 WEW       0.047200
     52 H17          7.0480    24.6920     3.5290 h1         1 WEW       0.039200
     53 H18          6.3260    25.3170     5.0120 h1         1 WEW       0.039200
     54 H19          4.4600    24.0320     4.6500 hc         1 WEW       0.057700
     55 H20          5.1770    23.2380     3.2630 hc         1 WEW       0.057700
     56 H21          4.7190    21.9740     5.7350 hc         1 WEW       0.060700
     57 H22          6.2360    23.3980     6.9320 h1         1 WEW       0.042200
     58 H23          7.2650    21.9950     6.6190 h1         1 WEW       0.042200
     59 H24          5.8160    19.9420     6.0450 hn         1 WEW       0.308500
     60 H25          7.0630    18.1010     5.4020 h1         1 WEW       0.066700
     61 H26          7.4700    18.8740     3.8750 h1         1 WEW       0.066700
     62 H27          5.1460    18.4960     3.0590 h1         1 WEW       0.023200
     63 H28          4.7250    17.7490     4.6020 h1         1 WEW       0.023200
     64 H29          5.3970    16.1780     3.0120 ho         1 WEW       0.446000
     65 H30          9.2580    21.8580     5.0390 ha         1 WEW       0.143000
     66 H31         11.1320    20.4330     5.7600 ha         1 WEW       0.124000
     67 H32         17.0030    21.4630     6.3700 ha         1 WEW       0.125000
     68 O1          10.3560    25.1410     7.8500 os         1 WEW      -0.349100
@<TRIPOS>BOND
     1     1    16 ar  
     2     1    32 ar  
     3     1    37 1   
     4     2     3 ar  
     5     2     7 ar  
     6     2    32 1   
     7     3     4 ar  
     8     3    33 1   
     9     4     5 ar  
    10     4     8 1   
    11     5     6 ar  
    12     5    38 1   
    13     6     7 ar  
    14     6    39 1   
    15     7    40 1   
    16     8     9 ar  
    17     8    36 ar  
    18     9    10 ar  
    19     9    41 1   
    20    10    11 ar  
    21    10    35 1   
    22    11    14 ar  
    23    11    34 1   
    24    12    13 1   
    25    12    34 1   
    26    12    42 1   
    27    12    43 1   
    28    13    35 1   
    29    13    44 1   
    30    13    45 1   
    31    14    36 ar  
    32    14    46 1   
    33    15    47 1   
    34    15    48 1   
    35    15    49 1   
    36    15    68 1   
    37    16    17 ar  
    38    16    68 1   
    39    17    18 1   
    40    17    30 ar  
    41    18    19 1   
    42    18    50 1   
    43    18    51 1   
    44    19    20 1   
    45    19    23 1   
    46    20    21 1   
    47    20    52 1   
    48    20    53 1   
    49    21    22 1   
    50    21    54 1   
    51    21    55 1   
    52    22    23 1   
    53    22    24 1   
    54    22    56 1   
    55    23    57 1   
    56    23    58 1   
    57    24    25 2   
    58    24    26 1   
    59    26    27 1   
    60    26    59 1   
    61    27    28 1   
    62    27    60 1   
    63    27    61 1   
    64    28    29 1   
    65    28    62 1   
    66    28    63 1   
    67    29    64 1   
    68    30    31 ar  
    69    30    65 1   
    70    31    32 ar  
    71    31    66 1   
    72    36    67 1   
@<TRIPOS>SUBSTRUCTURE
     1 WEW         1 TEMP              0 ****  ****    0 ROOT
