@<TRIPOS>MOLECULE
WEW
   68    72     1     0     0
SMALL
No Charge or Current Charge


@<TRIPOS>ATOM
      1 C15         11.5220    22.4820     7.4330 ca         1 WEW      -0.186000
      2 C16         13.1810    20.5990     7.1680 cp         1 WEW      -0.032000
      3 C17         14.5010    20.5050     6.6400 ca         1 WEW       0.143000
      4 C18         15.4530    19.6040     7.1990 cp         1 WEW      -0.027000
      5 C19         15.0530    18.7920     8.2870 ca         1 WEW      -0.092000
      6 C20         13.7610    18.8840     8.8230 ca         1 WEW      -0.113000
      7 C21         12.8380    19.7830     8.2720 ca         1 WEW      -0.093000
      8 C22         16.8480    19.4820     6.6790 cp         1 WEW      -0.041000
      9 C23         17.3440    18.2270     6.2500 ca         1 WEW      -0.092000
     10 C24         18.6610    18.0950     5.7810 ca         1 WEW       0.052100
     11 C25         19.5060    19.2300     5.7190 ca         1 WEW       0.062100
     12 C26         21.1320    17.9250     4.5010 c6         1 WEW       0.117600
     13 C27         20.5430    16.6900     5.2160 c6         1 WEW       0.118600
     14 C28         19.0370    20.4750     6.1640 ca         1 WEW      -0.110000
     15 C1          10.2140    24.4410     9.1250 c3         1 WEW       0.149900
     16 C2          10.5330    23.3540     6.9240 ca         1 WEW       0.135100
     17 C3          10.1600    23.2670     5.5640 ca         1 WEW      -0.110300
     18 C4           9.0940    24.1820     4.9640 c3         1 WEW       0.228100
     19 N1           7.8280    23.4710     4.6780 n3         1 WEW      -0.723600
     20 C5           6.7730    24.2780     4.0380 c5         1 WEW       0.169800
     21 C6           5.6630    23.2100     3.9210 c5         1 WEW      -0.068400
     22 C7           5.7410    22.5070     5.3180 c5         1 WEW      -0.151700
     23 C8           7.1580    22.8700     5.8560 c5         1 WEW       0.164800
     24 C9           5.6210    20.9700     5.1690 c          1 WEW       0.611100
     25 O2           6.3230    20.2250     4.4990 o          1 WEW      -0.585100
     26 N2           4.5600    20.5200     5.9270 ns         1 WEW      -0.517900
     27 C10          4.1270    19.1180     6.0060 c3         1 WEW       0.100000
     28 C11          3.4140    18.6340     4.7210 c3         1 WEW       0.137600
     29 O3           2.9760    17.2760     4.8770 oh         1 WEW      -0.659000
     30 C12         10.7720    22.3060     4.7370 ca         1 WEW      -0.064000
     31 C13         11.7530    21.4440     5.2520 ca         1 WEW      -0.124000
     32 C14         12.1540    21.5250     6.6050 cp         1 WEW      -0.006000
     33 Cl1         14.9670    21.5230     5.2680 cl         1 WEW      -0.186000
     34 O4          20.7940    19.1250     5.2320 os         1 WEW      -0.329100
     35 O5          19.1160    16.8530     5.3830 os         1 WEW      -0.329100
     36 C29         17.7210    20.5990     6.6430 ca         1 WEW      -0.085000
     37 H1          11.8260    22.5320     8.4740 ha         1 WEW       0.119000
     38 H2          15.7640    18.0950     8.7270 ha         1 WEW       0.122000
     39 H3          13.4760    18.2580     9.6660 ha         1 WEW       0.119000
     40 H4          11.8360    19.8420     8.6920 ha         1 WEW       0.120000
     41 H5          16.7010    17.3520     6.2850 ha         1 WEW       0.131000
     42 H6          20.7150    17.9950     3.4860 h1         1 WEW       0.067700
     43 H7          22.2250    17.8430     4.4200 h1         1 WEW       0.067700
     44 H8          20.7400    15.7760     4.6400 h1         1 WEW       0.066700
     45 H9          21.0080    16.5830     6.2060 h1         1 WEW       0.066700
     46 H10         19.6900    21.3440     6.1320 ha         1 WEW       0.129000
     47 H11          9.6040    25.2400     9.5640 h1         1 WEW       0.039700
     48 H12         10.0000    23.5120     9.6700 h1         1 WEW       0.039700
     49 H13         11.2700    24.7010     9.2720 h1         1 WEW       0.039700
     50 H14          9.4940    24.6040     4.0320 h1         1 WEW       0.047200
     51 H15          8.9050    25.0340     5.6310 h1         1 WEW       0.047200
     52 H17          7.0760    24.6690     3.0570 h1         1 WEW       0.039200
     53 H18          6.4620    25.1220     4.6710 h1         1 WEW       0.039200
     54 H19          4.6790    23.6510     3.7230 hc         1 WEW       0.057700
     55 H20          5.8820    22.5220     3.0960 hc         1 WEW       0.057700
     56 H21          4.9720    22.8950     5.9960 hc         1 WEW       0.060700
     57 H22          7.0780    23.5990     6.6750 h1         1 WEW       0.042200
     58 H23          7.7030    21.9980     6.2430 h1         1 WEW       0.042200
     59 H24          4.0390    21.2170     6.4460 hn         1 WEW       0.308500
     60 H25          3.4430    19.0130     6.8590 h1         1 WEW       0.066700
     61 H26          5.0040    18.4850     6.1960 h1         1 WEW       0.066700
     62 H27          4.1020    18.7140     3.8700 h1         1 WEW       0.023200
     63 H28          2.5550    19.2880     4.5210 h1         1 WEW       0.023200
     64 H29          2.5340    17.0180     4.0360 ho         1 WEW       0.446000
     65 H30         10.4760    22.2220     3.6930 ha         1 WEW       0.143000
     66 H31         12.2030    20.6990     4.6000 ha         1 WEW       0.124000
     67 H32         17.3710    21.5680     6.9910 ha         1 WEW       0.125000
     68 O1           9.9130    24.2950     7.7260 os         1 WEW      -0.349100
@<TRIPOS>BOND
     1     1    16 ar  
     2     1    32 ar  
     3     1    37 1   
     4     2     3 ar  
     5     2     7 ar  
     6     2    32 1   
     7     3     4 ar  
     8     3    33 1   
     9     4     5 ar  
    10     4     8 1   
    11     5     6 ar  
    12     5    38 1   
    13     6     7 ar  
    14     6    39 1   
    15     7    40 1   
    16     8     9 ar  
    17     8    36 ar  
    18     9    10 ar  
    19     9    41 1   
    20    10    11 ar  
    21    10    35 1   
    22    11    14 ar  
    23    11    34 1   
    24    12    13 1   
    25    12    34 1   
    26    12    42 1   
    27    12    43 1   
    28    13    35 1   
    29    13    44 1   
    30    13    45 1   
    31    14    36 ar  
    32    14    46 1   
    33    15    47 1   
    34    15    48 1   
    35    15    49 1   
    36    15    68 1   
    37    16    17 ar  
    38    16    68 1   
    39    17    18 1   
    40    17    30 ar  
    41    18    19 1   
    42    18    50 1   
    43    18    51 1   
    44    19    20 1   
    45    19    23 1   
    46    20    21 1   
    47    20    52 1   
    48    20    53 1   
    49    21    22 1   
    50    21    54 1   
    51    21    55 1   
    52    22    23 1   
    53    22    24 1   
    54    22    56 1   
    55    23    57 1   
    56    23    58 1   
    57    24    25 2   
    58    24    26 1   
    59    26    27 1   
    60    26    59 1   
    61    27    28 1   
    62    27    60 1   
    63    27    61 1   
    64    28    29 1   
    65    28    62 1   
    66    28    63 1   
    67    29    64 1   
    68    30    31 ar  
    69    30    65 1   
    70    31    32 ar  
    71    31    66 1   
    72    36    67 1   
@<TRIPOS>SUBSTRUCTURE
     1 WEW         1 TEMP              0 ****  ****    0 ROOT
