@<TRIPOS>MOLECULE
WEZ
   31    30     1     0     0
SMALL
No Charge or Current Charge


@<TRIPOS>ATOM
      1 N           10.9580    20.4220   -11.7170 n8         1 WEZ      -1.006200
      2 CA           9.7320    19.7610   -12.2820 c3         1 WEZ       0.044500
      3 C            9.2290    18.5020   -11.4950 c          1 WEZ       0.572900
      4 O            8.3480    18.5430   -10.6400 o          1 WEZ      -0.515100
      5 CB           9.9320    19.4240   -13.7840 c3         1 WEZ      -0.077400
      6 CG          10.1480    20.6600   -14.6990 c3         1 WEZ      -0.086400
      7 CD          10.2020    20.3240   -16.2050 c3         1 WEZ       0.217800
      8 NE          11.3910    19.5310   -16.5260 nu         1 WEZ      -0.959400
      9 C1          11.6710    19.1790   -17.7490 c2         1 WEZ       0.829100
     10 C3          13.4330    20.5430   -18.6090 c3         1 WEZ       0.336500
     11 C4          13.6310    20.2580   -20.1480 c          1 WEZ       0.539900
     12 N2          12.9560    19.3940   -17.8540 nu         1 WEZ      -0.959400
     13 N5          11.3550    18.0180   -18.0180 n2         1 WEZ      -0.899100
     14 O4          13.9720    19.1710   -20.6170 o          1 WEZ      -0.492100
     15 O6          14.6440    20.8700   -17.9620 oh         1 WEZ      -0.669000
     16 H071        11.1700    21.2690   -12.2590 hn         1 WEZ       0.405500
     17 H1          10.7520    20.7870   -10.7770 hn         1 WEZ       0.405500
     18 H031         8.9140    20.4930   -12.2200 h1         1 WEZ       0.044700
     19 H2           9.7280    17.5430   -11.7570 h4         1 WEZ       0.008200
     20 H021        10.7790    18.7340   -13.8920 hc         1 WEZ       0.057700
     21 H022         9.0450    18.8840   -14.1410 hc         1 WEZ       0.057700
     22 H012         9.3220    21.3650   -14.5390 hc         1 WEZ       0.052200
     23 H011        11.0680    21.1850   -14.4160 hc         1 WEZ       0.052200
     24 H081        10.2230    21.2640   -16.7750 h1         1 WEZ       0.041200
     25 H082         9.2910    19.7810   -16.4920 h1         1 WEZ       0.041200
     26 H091        12.2540    19.8630   -16.1210 hn         1 WEZ       0.487000
     27 H131        12.7370    21.3900   -18.5130 h2         1 WEZ       0.106700
     28 H141        13.4350    21.1280   -20.8130 h4         1 WEZ       0.017200
     29 H121        13.3130    18.5190   -18.2230 hn         1 WEZ       0.503000
     30 H111        10.6270    17.8130   -17.3270 hn         1 WEZ       0.385400
     31 H161        14.6120    20.3080   -17.1590 ho         1 WEZ       0.459000
@<TRIPOS>BOND
     1     1     2 1   
     2     1    16 1   
     3     1    17 1   
     4     2     3 1   
     5     2     5 1   
     6     2    18 1   
     7     3     4 2   
     8     3    19 1   
     9     5     6 1   
    10     5    20 1   
    11     5    21 1   
    12     6     7 1   
    13     6    22 1   
    14     6    23 1   
    15     7     8 1   
    16     7    24 1   
    17     7    25 1   
    18     8     9 1   
    19     8    26 1   
    20     9    12 1   
    21     9    13 2   
    22    10    11 1   
    23    10    12 1   
    24    10    15 1   
    25    10    27 1   
    26    11    14 2   
    27    11    28 1   
    28    12    29 1   
    29    13    30 1   
    30    15    31 1   
@<TRIPOS>SUBSTRUCTURE
     1 WEZ         1 TEMP              0 ****  ****    0 ROOT
