@<TRIPOS>MOLECULE
WEZ
   31    30     1     0     0
SMALL
abcg2


@<TRIPOS>ATOM
      1 N           10.8080    21.2700   -12.2090 n8         1 WEZ      -1.006200
      2 CA          10.1440    19.9860   -12.4320 c3         1 WEZ       0.044500
      3 C           10.8150    18.9440   -11.5680 c          1 WEZ       0.572900
      4 O           10.2390    18.0260   -11.0290 o          1 WEZ      -0.515100
      5 CB          10.2930    19.5300   -13.8940 c3         1 WEZ      -0.077400
      6 CG           9.5710    20.4490   -14.8820 c3         1 WEZ      -0.086400
      7 CD           9.5380    19.9020   -16.3050 c3         1 WEZ       0.217800
      8 NE          10.8720    19.8510   -16.8840 nu         1 WEZ      -0.959400
      9 C1          11.0640    19.5450   -18.2060 c2         1 WEZ       0.829100
     10 C3          13.4940    19.8740   -17.7660 c3         1 WEZ       0.336500
     11 C4          14.6800    20.2100   -18.6620 c          1 WEZ       0.539900
     12 N2          12.3910    19.5350   -18.6090 nu         1 WEZ      -0.959400
     13 N5          10.1550    19.3170   -19.0920 n2         1 WEZ      -0.899100
     14 O4          15.7260    19.6120   -18.6220 o          1 WEZ      -0.492100
     15 O6          13.8200    18.9190   -16.7740 oh         1 WEZ      -0.669000
     16 H071        10.4870    21.9560   -12.8820 hn         1 WEZ       0.405500
     17 H1          10.5670    21.6340   -11.2930 hn         1 WEZ       0.405500
     18 H031         9.0760    19.9910   -12.1780 h1         1 WEZ       0.044700
     19 H2          11.9130    19.0640   -11.4740 h4         1 WEZ       0.008200
     20 H021        11.3600    19.4660   -14.1280 hc         1 WEZ       0.057700
     21 H022         9.8790    18.5220   -13.9790 hc         1 WEZ       0.057700
     22 H012         8.5370    20.5790   -14.5530 hc         1 WEZ       0.052200
     23 H011        10.0320    21.4390   -14.9010 hc         1 WEZ       0.052200
     24 H081         8.9230    20.5580   -16.9240 h1         1 WEZ       0.041200
     25 H082         9.0680    18.9100   -16.3100 h1         1 WEZ       0.041200
     26 H091        11.6060    19.5460   -16.2620 hn         1 WEZ       0.487000
     27 H131        13.2480    20.7890   -17.2170 h2         1 WEZ       0.106700
     28 H141        14.5070    21.0430   -19.3650 h4         1 WEZ       0.017200
     29 H121        12.5660    19.0300   -19.4640 hn         1 WEZ       0.503000
     30 H111         9.2350    19.2630   -18.6660 hn         1 WEZ       0.385400
     31 H161        14.2580    18.1670   -17.1980 ho         1 WEZ       0.459000
@<TRIPOS>BOND
     1     1     2 1   
     2     1    16 1   
     3     1    17 1   
     4     2     3 1   
     5     2     5 1   
     6     2    18 1   
     7     3     4 2   
     8     3    19 1   
     9     5     6 1   
    10     5    20 1   
    11     5    21 1   
    12     6     7 1   
    13     6    22 1   
    14     6    23 1   
    15     7     8 1   
    16     7    24 1   
    17     7    25 1   
    18     8     9 1   
    19     8    26 1   
    20     9    12 1   
    21     9    13 2   
    22    10    11 1   
    23    10    12 1   
    24    10    15 1   
    25    10    27 1   
    26    11    14 2   
    27    11    28 1   
    28    12    29 1   
    29    13    30 1   
    30    15    31 1   
@<TRIPOS>SUBSTRUCTURE
     1 WEZ         1 TEMP              0 ****  ****    0 ROOT
