@<TRIPOS>MOLECULE
WF0
   41    42     1     0     0
SMALL
No Charge or Current Charge


@<TRIPOS>ATOM
      1 C1          -5.6290   -40.7440   -68.3360 c3         1 WF0       0.158800
      2 C2          -5.1800   -42.7400   -66.8800 c3         1 WF0       0.219100
      3 C3          -3.7120   -42.8610   -67.2720 ca         1 WF0      -0.154300
      4 C4          -3.3720   -43.4460   -68.5090 ca         1 WF0      -0.044000
      5 C5          -2.0270   -43.5600   -68.8930 ca         1 WF0      -0.052900
      6 C6          -1.0100   -43.1000   -68.0440 ca         1 WF0      -0.045000
      7 C7          -1.3390   -42.5170   -66.8080 ca         1 WF0      -0.193000
      8 C8          -2.6910   -42.3850   -66.4180 ca         1 WF0       0.151100
      9 C9          -2.1590   -41.0270   -64.4030 c3         1 WF0       0.211900
     10 O1          -3.0550   -41.8190   -65.2090 os         1 WF0      -0.343100
     11 N           -5.6350   -41.3400   -66.9740 n7         1 WF0      -0.848400
     12 C           -6.0700   -39.2520   -68.3390 c3         1 WF0       0.163600
     13 O           -7.4480   -39.1010   -67.9560 oh         1 WF0      -0.645000
     14 C10         -1.8900   -39.6970   -65.1030 ca         1 WF0      -0.153300
     15 C11         -0.5930   -39.3670   -65.5400 ca         1 WF0      -0.043000
     16 C12         -0.3600   -38.1410   -66.1820 ca         1 WF0      -0.159000
     17 C13         -1.4130   -37.2370   -66.3810 ca         1 WF0       0.233000
     18 C14         -2.7170   -37.5410   -65.9370 ca         1 WF0      -0.249300
     19 C15         -3.8510   -36.5320   -66.1450 c3         1 WF0       0.369300
     20 C16         -2.9450   -38.7820   -65.2990 ca         1 WF0      -0.011000
     21 F           -1.1540   -36.0640   -67.0010 f          1 WF0      -0.156000
     22 F1          -5.0300   -36.9460   -65.6280 f          1 WF0      -0.108000
     23 F2          -4.0680   -36.2910   -67.4580 f          1 WF0      -0.108000
     24 F3          -3.5740   -35.3430   -65.5630 f          1 WF0      -0.108000
     25 Br          -1.5790   -44.3510   -70.5760 br         1 WF0      -0.095100
     26 H1          -6.2900   -41.3100   -69.0070 h1         1 WF0       0.037700
     27 H2          -4.6180   -40.7910   -68.7630 h1         1 WF0       0.037700
     28 H3          -5.7920   -43.3900   -67.5220 h1         1 WF0       0.062700
     29 H4          -5.3010   -43.1100   -65.8510 h1         1 WF0       0.062700
     30 H5          -4.1510   -43.8080   -69.1760 ha         1 WF0       0.133000
     31 H6           0.0330   -43.1960   -68.3400 ha         1 WF0       0.129000
     32 H7          -0.5300   -42.1850   -66.1670 ha         1 WF0       0.119000
     33 H8          -2.6260   -40.8180   -63.4320 h1         1 WF0       0.067700
     34 H9          -1.2250   -41.5640   -64.1950 h1         1 WF0       0.067700
     35 H10         -5.0030   -40.7900   -66.3830 hn         1 WF0       0.413000
     36 H12         -5.9190   -38.8450   -69.3480 h1         1 WF0       0.017200
     37 H13         -5.4200   -38.6880   -67.6580 h1         1 WF0       0.017200
     38 H14         -7.6290   -38.1370   -67.9180 ho         1 WF0       0.437000
     39 H15          0.2350   -40.0540   -65.3830 ha         1 WF0       0.122000
     40 H16          0.6390   -37.8860   -66.5240 ha         1 WF0       0.144000
     41 H17         -3.9400   -39.0470   -64.9440 ha         1 WF0       0.142000
@<TRIPOS>BOND
     1     1    11 1   
     2     1    12 1   
     3     1    26 1   
     4     1    27 1   
     5     2     3 1   
     6     2    11 1   
     7     2    28 1   
     8     2    29 1   
     9     3     4 ar  
    10     3     8 ar  
    11     4     5 ar  
    12     4    30 1   
    13     5     6 ar  
    14     5    25 1   
    15     6     7 ar  
    16     6    31 1   
    17     7     8 ar  
    18     7    32 1   
    19     8    10 1   
    20     9    10 1   
    21     9    14 1   
    22     9    33 1   
    23     9    34 1   
    24    11    35 1   
    25    12    13 1   
    26    12    36 1   
    27    12    37 1   
    28    13    38 1   
    29    14    15 ar  
    30    14    20 ar  
    31    15    16 ar  
    32    15    39 1   
    33    16    17 ar  
    34    16    40 1   
    35    17    18 ar  
    36    17    21 1   
    37    18    19 1   
    38    18    20 ar  
    39    19    22 1   
    40    19    23 1   
    41    19    24 1   
    42    20    41 1   
@<TRIPOS>SUBSTRUCTURE
     1 WF0         1 TEMP              0 ****  ****    0 ROOT
