@<TRIPOS>MOLECULE
WF0
   41    42     1     0     0
SMALL
abcg2


@<TRIPOS>ATOM
      1 C1          -5.8030   -40.8000   -68.2370 c3         1 WF0       0.158800
      2 C2          -5.2030   -42.7020   -66.8390 c3         1 WF0       0.219100
      3 C3          -3.7620   -42.7790   -67.2970 ca         1 WF0      -0.154300
      4 C4          -3.4500   -43.3800   -68.5060 ca         1 WF0      -0.044000
      5 C5          -2.1380   -43.4320   -68.9560 ca         1 WF0      -0.052900
      6 C6          -1.1170   -42.8800   -68.2060 ca         1 WF0      -0.045000
      7 C7          -1.4140   -42.2720   -66.9910 ca         1 WF0      -0.193000
      8 C8          -2.7260   -42.2190   -66.5340 ca         1 WF0       0.151100
      9 C9          -2.1530   -41.0150   -64.5420 c3         1 WF0       0.211900
     10 O1          -3.1030   -41.6740   -65.3570 os         1 WF0      -0.343100
     11 N           -5.8240   -41.3950   -66.9160 n7         1 WF0      -0.848400
     12 C           -6.6050   -39.5180   -68.2960 c3         1 WF0       0.163600
     13 O           -7.9640   -39.7850   -68.0340 oh         1 WF0      -0.645000
     14 C10         -1.7370   -39.6740   -65.0900 ca         1 WF0      -0.153300
     15 C11         -0.3990   -39.3070   -65.1270 ca         1 WF0      -0.043000
     16 C12         -0.0120   -38.0590   -65.5920 ca         1 WF0      -0.159000
     17 C13         -0.9830   -37.1840   -66.0260 ca         1 WF0       0.233000
     18 C14         -2.3330   -37.5140   -66.0010 ca         1 WF0      -0.249300
     19 C15         -3.3560   -36.5290   -66.4760 c3         1 WF0       0.369300
     20 C16         -2.6970   -38.7680   -65.5300 ca         1 WF0      -0.011000
     21 F           -0.6110   -35.9850   -66.4850 f          1 WF0      -0.156000
     22 F1          -4.6030   -36.9810   -66.3110 f          1 WF0      -0.108000
     23 F2          -3.2100   -36.2520   -67.7780 f          1 WF0      -0.108000
     24 F3          -3.2780   -35.3670   -65.8180 f          1 WF0      -0.108000
     25 BR          -1.7510   -44.2670   -70.6080 br         1 WF0      -0.095100
     26 H1          -6.2210   -41.5220   -68.9470 h1         1 WF0       0.037700
     27 H2          -4.7910   -40.5670   -68.6000 h1         1 WF0       0.037700
     28 H3          -5.7890   -43.3910   -67.4540 h1         1 WF0       0.062700
     29 H4          -5.2900   -43.0600   -65.8110 h1         1 WF0       0.062700
     30 H5          -4.2520   -43.8090   -69.0950 ha         1 WF0       0.133000
     31 H6          -0.0900   -42.9120   -68.5410 ha         1 WF0       0.129000
     32 H7          -0.5950   -41.8570   -66.4220 ha         1 WF0       0.119000
     33 H8          -2.6560   -40.8850   -63.5830 h1         1 WF0       0.067700
     34 H9          -1.2760   -41.6430   -64.3580 h1         1 WF0       0.067700
     35 H10         -5.3980   -40.7660   -66.2470 hn         1 WF0       0.413000
     36 H12         -6.4620   -39.0780   -69.2920 h1         1 WF0       0.017200
     37 H13         -6.1890   -38.8010   -67.5760 h1         1 WF0       0.017200
     38 H14         -8.4440   -38.9530   -68.0710 ho         1 WF0       0.437000
     39 H15          0.3600   -40.0030   -64.7930 ha         1 WF0       0.122000
     40 H16          1.0300   -37.7730   -65.6260 ha         1 WF0       0.144000
     41 H17         -3.7420   -39.0450   -65.4970 ha         1 WF0       0.142000
@<TRIPOS>BOND
     1     1    11 1   
     2     1    12 1   
     3     1    26 1   
     4     1    27 1   
     5     2     3 1   
     6     2    11 1   
     7     2    28 1   
     8     2    29 1   
     9     3     4 ar  
    10     3     8 ar  
    11     4     5 ar  
    12     4    30 1   
    13     5     6 ar  
    14     5    25 1   
    15     6     7 ar  
    16     6    31 1   
    17     7     8 ar  
    18     7    32 1   
    19     8    10 1   
    20     9    10 1   
    21     9    14 1   
    22     9    33 1   
    23     9    34 1   
    24    11    35 1   
    25    12    13 1   
    26    12    36 1   
    27    12    37 1   
    28    13    38 1   
    29    14    15 ar  
    30    14    20 ar  
    31    15    16 ar  
    32    15    39 1   
    33    16    17 ar  
    34    16    40 1   
    35    17    18 ar  
    36    17    21 1   
    37    18    19 1   
    38    18    20 ar  
    39    19    22 1   
    40    19    23 1   
    41    19    24 1   
    42    20    41 1   
@<TRIPOS>SUBSTRUCTURE
     1 WF0         1 TEMP              0 ****  ****    0 ROOT
