@<TRIPOS>MOLECULE
WF1
   44    43     1     0     0
SMALL
No Charge or Current Charge


@<TRIPOS>ATOM
      1 C14         95.3120   120.1580   167.5930 c3         1 WF1       0.149600
      2 C23         96.0570   126.8900   162.9670 c3         1 WF1       0.166600
      3 O22         96.0250   127.1710   164.3850 os         1 WF1      -0.440000
      4 C12         95.6840   117.8540   168.3510 c3         1 WF1       0.110600
      5 C15         95.1640   119.8370   166.0830 c3         1 WF1       0.065000
      6 C20         94.6090   125.2850   165.1560 c3         1 WF1       0.114600
      7 C18         95.3490   123.1700   164.0960 c3         1 WF1       0.070600
      8 C08         98.2640   115.7570   168.6140 c          1 WF1       0.701000
      9 C09         97.1820   115.5660   169.7320 c3         1 WF1       0.004600
     10 O10         95.8020   115.5600   169.2620 os         1 WF1      -0.448000
     11 C11         95.0870   116.8180   169.3360 c3         1 WF1       0.181600
     12 O13         94.8560   119.0390   168.3860 os         1 WF1      -0.470000
     13 N16         95.5140   120.9750   165.2190 ns         1 WF1      -0.509900
     14 C17         94.7360   122.1050   165.0480 c          1 WF1       0.559100
     15 O19         94.5760   124.4000   164.0060 os         1 WF1      -0.427000
     16 C21         95.9750   126.0260   165.2690 c3         1 WF1       0.129600
     17 C24         96.3120   128.2130   162.1870 c3         1 WF1       0.145800
     18 N25         95.2170   129.2150   162.2960 n8         1 WF1      -0.978200
     19 O26         93.6560   122.2310   165.6120 o          1 WF1      -0.584100
     20 O27         97.9370   115.7050   167.4350 o          1 WF1      -0.732500
     21 H1          96.3600   120.3980   167.8200 h1         1 WF1       0.045200
     22 H2          94.7100   121.0440   167.8290 h1         1 WF1       0.045200
     23 H3          95.1100   126.4530   162.6260 h1         1 WF1       0.027200
     24 H4          96.8640   126.1830   162.7360 h1         1 WF1       0.027200
     25 H5          95.7020   117.4150   167.3460 h1         1 WF1       0.052200
     26 H6          96.7120   118.0970   168.6490 h1         1 WF1       0.052200
     27 H7          94.1280   119.5400   165.8760 h1         1 WF1       0.061700
     28 H8          95.8180   118.9980   165.8160 h1         1 WF1       0.061700
     29 H9          94.4330   124.7230   166.0820 h1         1 WF1       0.064200
     30 H10         93.8100   126.0350   165.0800 h1         1 WF1       0.064200
     31 H11         95.4120   122.7020   163.1050 h1         1 WF1       0.053200
     32 H12         96.3780   123.3620   164.4210 h1         1 WF1       0.053200
     33 H14         97.3300   116.3420   170.4960 h1         1 WF1       0.020700
     34 H15         97.4000   114.6030   170.2090 h1         1 WF1       0.020700
     35 H16         94.0330   116.6550   169.0770 h1         1 WF1       0.022700
     36 H17         95.1210   117.2200   170.3570 h1         1 WF1       0.022700
     37 H18         96.3920   120.9430   164.7110 hn         1 WF1       0.310500
     38 H19         96.8120   125.3440   165.0760 h1         1 WF1       0.043200
     39 H20         96.0800   126.3720   166.3050 h1         1 WF1       0.043200
     40 H21         97.2450   128.6700   162.5450 h1         1 WF1       0.029700
     41 H22         96.4460   127.9700   161.1240 h1         1 WF1       0.029700
     42 H23         95.4230   130.0050   161.6730 hn         1 WF1       0.387000
     43 H24         94.3560   128.8150   161.9060 hn         1 WF1       0.387000
     44 O1          99.4160   115.9600   168.9730 o          1 WF1      -0.732500
@<TRIPOS>BOND
     1     1     5 1   
     2     1    12 1   
     3     1    21 1   
     4     1    22 1   
     5     2     3 1   
     6     2    17 1   
     7     2    23 1   
     8     2    24 1   
     9     3    16 1   
    10     4    11 1   
    11     4    12 1   
    12     4    25 1   
    13     4    26 1   
    14     5    13 1   
    15     5    27 1   
    16     5    28 1   
    17     6    15 1   
    18     6    16 1   
    19     6    29 1   
    20     6    30 1   
    21     7    14 1   
    22     7    15 1   
    23     7    31 1   
    24     7    32 1   
    25     8     9 1   
    26     8    20 1   
    27     8    44 1   
    28     9    10 1   
    29     9    33 1   
    30     9    34 1   
    31    10    11 1   
    32    11    35 1   
    33    11    36 1   
    34    13    14 1   
    35    13    37 1   
    36    14    19 2   
    37    16    38 1   
    38    16    39 1   
    39    17    18 1   
    40    17    40 1   
    41    17    41 1   
    42    18    42 1   
    43    18    43 1   
@<TRIPOS>SUBSTRUCTURE
     1 WF1         1 TEMP              0 ****  ****    0 ROOT
