@<TRIPOS>MOLECULE
WF1
   44    43     1     0     0
SMALL
bcc


@<TRIPOS>ATOM
      1 C14         95.3730   120.0230   167.4530 c3         1 WF1       0.126400
      2 C23         95.8220   126.9150   162.8630 c3         1 WF1       0.143400
      3 O22         96.0220   127.2200   164.2260 os         1 WF1      -0.393600
      4 C12         95.8660   117.8150   168.1620 c3         1 WF1       0.087400
      5 C15         94.9840   119.9290   165.9770 c3         1 WF1       0.065000
      6 C20         95.0860   125.2930   165.4440 c3         1 WF1       0.091400
      7 C18         95.2020   123.2810   164.2130 c3         1 WF1       0.047400
      8 C08         98.3820   115.8050   169.3410 c          1 WF1       0.911600
      9 C09         96.9750   115.4770   169.8820 c3         1 WF1      -0.018600
     10 O10         95.9320   115.4830   168.9350 os         1 WF1      -0.401600
     11 C11         95.1770   116.6600   168.8780 c3         1 WF1       0.158400
     12 O13         94.9520   118.8900   168.1700 os         1 WF1      -0.423600
     13 N16         95.3880   121.0980   165.2280 ns         1 WF1      -0.576900
     14 C17         94.6600   122.2260   165.1790 c          1 WF1       0.626100
     15 O19         94.5760   124.5130   164.3810 os         1 WF1      -0.380600
     16 C21         96.2970   126.1280   165.0650 c3         1 WF1       0.106400
     17 C24         96.0710   128.1440   162.0140 c3         1 WF1       0.145800
     18 N25         95.1340   129.2150   162.3190 n8         1 WF1      -0.867800
     19 O26         93.6290   122.3920   165.8070 o          1 WF1      -0.584100
     20 O27         98.5160   115.9930   168.1200 o          1 WF1      -0.837800
     21 H1          96.4560   120.1770   167.5430 h1         1 WF1       0.045200
     22 H2          94.8830   120.8910   167.8990 h1         1 WF1       0.045200
     23 H3          94.8050   126.5450   162.6800 h1         1 WF1       0.027200
     24 H4          96.5090   126.1220   162.5380 h1         1 WF1       0.027200
     25 H5          96.1370   117.5110   167.1440 h1         1 WF1       0.052200
     26 H6          96.7940   118.1000   168.6720 h1         1 WF1       0.052200
     27 H7          93.9050   119.7970   165.8920 h1         1 WF1       0.061700
     28 H8          95.4530   119.0610   165.5130 h1         1 WF1       0.061700
     29 H9          95.3550   124.6680   166.3060 h1         1 WF1       0.064200
     30 H10         94.2780   125.9520   165.7710 h1         1 WF1       0.064200
     31 H11         94.9940   122.9390   163.1950 h1         1 WF1       0.053200
     32 H12         96.2950   123.3420   164.2990 h1         1 WF1       0.053200
     33 H14         96.7480   116.1510   170.7200 h1         1 WF1       0.020700
     34 H15         97.0130   114.4680   170.3110 h1         1 WF1       0.020700
     35 H16         94.2540   116.4180   168.3410 h1         1 WF1       0.022700
     36 H17         94.8850   116.9920   169.8850 h1         1 WF1       0.022700
     37 H18         96.2540   121.0520   164.7150 hn         1 WF1       0.310500
     38 H19         97.0790   125.4880   164.6320 h1         1 WF1       0.043200
     39 H20         96.7080   126.5460   165.9890 h1         1 WF1       0.043200
     40 H21         97.0860   128.5060   162.1970 h1         1 WF1       0.029700
     41 H22         96.0440   127.8160   160.9650 h1         1 WF1       0.029700
     42 H23         95.3560   130.0240   161.7530 hn         1 WF1       0.331800
     43 H24         94.2020   128.9340   162.0370 hn         1 WF1       0.331800
     44 O1          99.2670   115.8210   170.2200 o          1 WF1      -0.837800
@<TRIPOS>BOND
     1     1     5 1   
     2     1    12 1   
     3     1    21 1   
     4     1    22 1   
     5     2     3 1   
     6     2    17 1   
     7     2    23 1   
     8     2    24 1   
     9     3    16 1   
    10     4    11 1   
    11     4    12 1   
    12     4    25 1   
    13     4    26 1   
    14     5    13 1   
    15     5    27 1   
    16     5    28 1   
    17     6    15 1   
    18     6    16 1   
    19     6    29 1   
    20     6    30 1   
    21     7    14 1   
    22     7    15 1   
    23     7    31 1   
    24     7    32 1   
    25     8     9 1   
    26     8    20 1   
    27     8    44 1   
    28     9    10 1   
    29     9    33 1   
    30     9    34 1   
    31    10    11 1   
    32    11    35 1   
    33    11    36 1   
    34    13    14 1   
    35    13    37 1   
    36    14    19 2   
    37    16    38 1   
    38    16    39 1   
    39    17    18 1   
    40    17    40 1   
    41    17    41 1   
    42    18    42 1   
    43    18    43 1   
@<TRIPOS>SUBSTRUCTURE
     1 WF1         1 TEMP              0 ****  ****    0 ROOT
