@<TRIPOS>MOLECULE
WF3
   50    52     1     0     0
SMALL
No Charge or Current Charge


@<TRIPOS>ATOM
      1 C1           4.0860     2.8680     2.4490 c3         1 WF3       0.150900
      2 O2           3.8270     1.7960     1.5250 os         1 WF3      -0.429100
      3 C3           3.4970     2.1200     0.2350 c          1 WF3       0.618300
      4 O4           3.4070     3.2680    -0.1810 o          1 WF3      -0.513000
      5 C5           3.2440     0.9090    -0.6100 ce         1 WF3      -0.229400
      6 C6           2.9060     1.0450    -1.9120 c2         1 WF3       0.076100
      7 O7           2.6710    -0.0270    -2.7340 os         1 WF3      -0.320100
      8 C8           2.3160     0.2260    -4.1030 c3         1 WF3       0.141900
      9 C9           3.3880    -0.4400     0.0130 ca         1 WF3      -0.003800
     10 C10          4.5810    -1.1570    -0.1950 ca         1 WF3      -0.092000
     11 C11          4.7550    -2.4320     0.3680 ca         1 WF3      -0.107000
     12 C12          3.7320    -3.0000     1.1420 ca         1 WF3      -0.110000
     13 C13          2.5360    -2.2930     1.3520 ca         1 WF3      -0.087000
     14 C14          2.3530    -1.0120     0.7930 ca         1 WF3      -0.072300
     15 C15          1.0370    -0.2780     1.0340 c3         1 WF3       0.218900
     16 O16          0.1200    -0.6340    -0.0150 os         1 WF3      -0.446300
     17 C17         -1.1480    -0.0960    -0.0700 ca         1 WF3       0.591300
     18 C18         -2.0380    -0.4870    -1.1160 ca         1 WF3       0.196300
     19 C19         -1.5900    -1.5060    -2.1760 c3         1 WF3       0.280700
     20 F20         -1.2300    -2.6860    -1.6210 f          1 WF3      -0.100667
     21 F21         -2.5570    -1.7900    -3.0830 f          1 WF3      -0.100667
     22 F22         -0.5250    -1.0590    -2.8820 f          1 WF3      -0.100667
     23 N23         -3.3050     0.0240    -1.2100 nb         1 WF3      -0.561000
     24 C24         -3.6740     0.9210    -0.2590 ca         1 WF3       0.182000
     25 C25         -4.9640     1.4830    -0.3010 ca         1 WF3      -0.052000
     26 C26         -5.3850     2.4140     0.6670 ca         1 WF3      -0.084300
     27 C27         -6.7830     3.0110     0.5990 c3         1 WF3      -0.047800
     28 C28         -4.5010     2.7930     1.6900 ca         1 WF3      -0.076000
     29 C29         -3.2100     2.2420     1.7470 ca         1 WF3      -0.097000
     30 C30         -2.7770     1.3090     0.7890 ca         1 WF3       0.295000
     31 N31         -1.5200     0.8010     0.8810 nb         1 WF3      -0.738000
     32 H1           3.2040     3.5130     2.5570 h1         1 WF3       0.047700
     33 H1A          4.3370     2.4660     3.4390 h1         1 WF3       0.047700
     34 H1B          4.9290     3.4830     2.1080 h1         1 WF3       0.047700
     35 H6           2.8000     2.0220    -2.3890 h4         1 WF3       0.196000
     36 H8           1.3920     0.8140    -4.1630 h1         1 WF3       0.049700
     37 H8A          3.1140     0.7770    -4.6170 h1         1 WF3       0.049700
     38 H8B          2.1550    -0.7190    -4.6360 h1         1 WF3       0.049700
     39 H10          5.3750    -0.7220    -0.7970 ha         1 WF3       0.113000
     40 H11          5.6810    -2.9780     0.2020 ha         1 WF3       0.112000
     41 H12          3.8630    -3.9890     1.5770 ha         1 WF3       0.114000
     42 H13          1.7450    -2.7450     1.9480 ha         1 WF3       0.127000
     43 H15          0.6340    -0.5660     2.0140 h1         1 WF3       0.064700
     44 H15A         1.2060     0.8060     1.0550 h1         1 WF3       0.064700
     45 H25         -5.6430     1.1890    -1.0970 ha         1 WF3       0.136000
     46 H27         -7.1480     3.2910     1.5950 hc         1 WF3       0.047367
     47 H27A        -6.7940     3.9120    -0.0260 hc         1 WF3       0.047367
     48 H27B        -7.5020     2.3000     0.1750 hc         1 WF3       0.047367
     49 H28         -4.8110     3.5150     2.4430 ha         1 WF3       0.119000
     50 H29         -2.5340     2.5420     2.5430 ha         1 WF3       0.137000
@<TRIPOS>BOND
     1     1     2 1   
     2     1    32 1   
     3     1    33 1   
     4     1    34 1   
     5     2     3 1   
     6     3     4 2   
     7     3     5 1   
     8     5     6 2   
     9     5     9 1   
    10     6     7 1   
    11     6    35 1   
    12     7     8 1   
    13     8    36 1   
    14     8    37 1   
    15     8    38 1   
    16     9    10 ar  
    17     9    14 ar  
    18    10    11 ar  
    19    10    39 1   
    20    11    12 ar  
    21    11    40 1   
    22    12    13 ar  
    23    12    41 1   
    24    13    14 ar  
    25    13    42 1   
    26    14    15 1   
    27    15    16 1   
    28    15    43 1   
    29    15    44 1   
    30    16    17 1   
    31    17    18 ar  
    32    17    31 ar  
    33    18    19 1   
    34    18    23 ar  
    35    19    20 1   
    36    19    21 1   
    37    19    22 1   
    38    23    24 ar  
    39    24    25 ar  
    40    24    30 ar  
    41    25    26 ar  
    42    25    45 1   
    43    26    27 1   
    44    26    28 ar  
    45    27    46 1   
    46    27    47 1   
    47    27    48 1   
    48    28    29 ar  
    49    28    49 1   
    50    29    30 ar  
    51    29    50 1   
    52    30    31 ar  
@<TRIPOS>SUBSTRUCTURE
     1 WF3         1 TEMP              0 ****  ****    0 ROOT
