@<TRIPOS>MOLECULE
WF3
   50    52     1     0     0
SMALL
bcc


@<TRIPOS>ATOM
      1 C1           3.3020     2.4170     2.7700 c3         1 WF3       0.127700
      2 O2           3.3630     1.5530     1.6370 os         1 WF3      -0.405900
      3 C3           3.5020     2.1190     0.4420 c          1 WF3       0.667300
      4 O4           3.5920     3.3180     0.2860 o          1 WF3      -0.562000
      5 C5           3.5330     1.1160    -0.6280 ce         1 WF3      -0.229400
      6 C6           3.6980     1.5660    -1.8860 c2         1 WF3       0.126100
      7 O7           3.7250     0.7470    -2.9200 os         1 WF3      -0.296900
      8 C8           3.9650     1.3430    -4.1940 c3         1 WF3       0.118700
      9 C9           3.4220    -0.3330    -0.3330 ca         1 WF3      -0.003800
     10 C10          4.5630    -1.1280    -0.4140 ca         1 WF3      -0.110000
     11 C11          4.5070    -2.4890    -0.1570 ca         1 WF3      -0.125000
     12 C12          3.2960    -3.0690     0.1910 ca         1 WF3      -0.128000
     13 C13          2.1520    -2.2890     0.2750 ca         1 WF3      -0.105000
     14 C14          2.1990    -0.9230     0.0100 ca         1 WF3      -0.072300
     15 C15          0.9740    -0.0620     0.1270 c3         1 WF3       0.195700
     16 O16         -0.1760    -0.8750    -0.0900 os         1 WF3      -0.423100
     17 C17         -1.3680    -0.3200     0.0460 ca         1 WF3       0.591300
     18 C18         -2.5020    -1.1820    -0.1130 ca         1 WF3       0.196300
     19 C19         -2.3210    -2.6500    -0.4070 c3         1 WF3       0.644600
     20 F20         -1.6440    -3.2600     0.5740 f          1 WF3      -0.221967
     21 F21         -3.4890    -3.2690    -0.5290 f          1 WF3      -0.221967
     22 F22         -1.6410    -2.8440    -1.5410 f          1 WF3      -0.221967
     23 N23         -3.7080    -0.7380     0.0010 nb         1 WF3      -0.561000
     24 C24         -3.8860     0.5760     0.2800 ca         1 WF3       0.247300
     25 C25         -5.1910     1.0890     0.4160 ca         1 WF3      -0.135300
     26 C26         -5.3920     2.4160     0.7010 ca         1 WF3      -0.084300
     27 C27         -6.7670     2.9930     0.8560 c3         1 WF3      -0.047800
     28 C28         -4.2610     3.2550     0.8550 ca         1 WF3      -0.094000
     29 C29         -2.9820     2.7810     0.7290 ca         1 WF3      -0.180300
     30 C30         -2.7670     1.4210     0.4370 ca         1 WF3       0.360300
     31 N31         -1.5090     0.9370     0.3110 nb         1 WF3      -0.738000
     32 H1           2.4450     3.0880     2.7150 h1         1 WF3       0.047700
     33 H1A          3.1950     1.7670     3.6340 h1         1 WF3       0.047700
     34 H1B          4.2130     3.0060     2.8730 h1         1 WF3       0.047700
     35 H6           3.8060     2.6300    -2.0860 h4         1 WF3       0.146000
     36 H8           3.2250     2.1130    -4.4140 h1         1 WF3       0.049700
     37 H8A          4.9650     1.7770    -4.2380 h1         1 WF3       0.049700
     38 H8B          3.8850     0.5490    -4.9310 h1         1 WF3       0.049700
     39 H10          5.5060    -0.6680    -0.6810 ha         1 WF3       0.131000
     40 H11          5.4030    -3.0920    -0.2250 ha         1 WF3       0.130000
     41 H12          3.2380    -4.1300     0.3960 ha         1 WF3       0.132000
     42 H13          1.2160    -2.7590     0.5460 ha         1 WF3       0.145000
     43 H15          0.9180     0.3930     1.1200 h1         1 WF3       0.064700
     44 H15A         0.9950     0.7520    -0.6020 h1         1 WF3       0.064700
     45 H25         -6.0270     0.4110     0.2920 ha         1 WF3       0.154000
     46 H27         -6.8940     3.4410     1.8420 hc         1 WF3       0.047367
     47 H27A        -6.9470     3.7800     0.1210 hc         1 WF3       0.047367
     48 H27B        -7.5360     2.2320     0.7290 hc         1 WF3       0.047367
     49 H28         -4.4160     4.3040     1.0770 ha         1 WF3       0.137000
     50 H29         -2.1280     3.4350     0.8480 ha         1 WF3       0.155000
@<TRIPOS>BOND
     1     1     2 1   
     2     1    32 1   
     3     1    33 1   
     4     1    34 1   
     5     2     3 1   
     6     3     4 2   
     7     3     5 1   
     8     5     6 2   
     9     5     9 1   
    10     6     7 1   
    11     6    35 1   
    12     7     8 1   
    13     8    36 1   
    14     8    37 1   
    15     8    38 1   
    16     9    10 ar  
    17     9    14 ar  
    18    10    11 ar  
    19    10    39 1   
    20    11    12 ar  
    21    11    40 1   
    22    12    13 ar  
    23    12    41 1   
    24    13    14 ar  
    25    13    42 1   
    26    14    15 1   
    27    15    16 1   
    28    15    43 1   
    29    15    44 1   
    30    16    17 1   
    31    17    18 ar  
    32    17    31 ar  
    33    18    19 1   
    34    18    23 ar  
    35    19    20 1   
    36    19    21 1   
    37    19    22 1   
    38    23    24 ar  
    39    24    25 ar  
    40    24    30 ar  
    41    25    26 ar  
    42    25    45 1   
    43    26    27 1   
    44    26    28 ar  
    45    27    46 1   
    46    27    47 1   
    47    27    48 1   
    48    28    29 ar  
    49    28    49 1   
    50    29    30 ar  
    51    29    50 1   
    52    30    31 ar  
@<TRIPOS>SUBSTRUCTURE
     1 WF3         1 TEMP              0 ****  ****    0 ROOT
