@<TRIPOS>MOLECULE
WF4
   26    27     1     0     0
SMALL
bcc


@<TRIPOS>ATOM
      1 C01          3.9140     2.4590     0.0500 c3         1 WF4      -0.107400
      2 C02          3.0710     1.2300     0.0180 cc         1 WF4       0.324600
      3 C03          3.5020    -0.0700    -0.0270 cd         1 WF4      -0.143000
      4 C04          4.8630    -0.7170    -0.0640 c          1 WF4       0.947200
      5 O05          5.8590     0.0250    -0.0500 o          1 WF4      -0.805800
      6 O06          4.8360    -1.9620    -0.1080 o          1 WF4      -0.805800
      7 S07          2.1440    -1.1250    -0.0460 ss         1 WF4      -0.115300
      8 C08          1.0930     0.2370     0.0050 cd         1 WF4       0.362900
      9 C09         -0.3650     0.1220     0.0110 ca         1 WF4      -0.042500
     10 C10         -1.1460     1.2790     0.0220 ca         1 WF4      -0.129500
     11 C11         -2.5260     1.1970     0.0290 ca         1 WF4      -0.085000
     12 C12         -3.1510    -0.0450     0.0270 ca         1 WF4      -0.221300
     13 C13         -4.6440    -0.1350    -0.0120 c3         1 WF4       0.719200
     14 F14         -5.1030    -0.1640    -1.2740 f          1 WF4      -0.243633
     15 F15         -5.1010    -1.2400     0.5880 f          1 WF4      -0.243633
     16 F16         -5.2300     0.9090     0.5850 f          1 WF4      -0.243633
     17 C17         -2.3840    -1.2040     0.0120 ca         1 WF4      -0.085000
     18 C18         -1.0030    -1.1180     0.0050 ca         1 WF4      -0.129500
     19 N19          1.7140     1.3790     0.0340 nc         1 WF4      -0.658000
     20 H1           3.7000     3.0460     0.9450 hc         1 WF4       0.042700
     21 H2           4.9700     2.2130     0.0380 hc         1 WF4       0.042700
     22 H3           3.6940     3.0960    -0.8090 hc         1 WF4       0.042700
     23 H5          -0.6670     2.2480     0.0260 ha         1 WF4       0.153000
     24 H6          -3.1040     2.1110     0.0380 ha         1 WF4       0.135500
     25 H7          -2.8470    -2.1810     0.0090 ha         1 WF4       0.135500
     26 H8          -0.4290    -2.0360    -0.0030 ha         1 WF4       0.153000
@<TRIPOS>BOND
     1     1     2 1   
     2     1    20 1   
     3     1    21 1   
     4     1    22 1   
     5     2     3 2   
     6     2    19 1   
     7     3     4 1   
     8     3     7 1   
     9     4     5 1   
    10     4     6 1   
    11     7     8 1   
    12     8     9 1   
    13     8    19 2   
    14     9    10 ar  
    15     9    18 ar  
    16    10    11 ar  
    17    10    23 1   
    18    11    12 ar  
    19    11    24 1   
    20    12    13 1   
    21    12    17 ar  
    22    13    14 1   
    23    13    15 1   
    24    13    16 1   
    25    17    18 ar  
    26    17    25 1   
    27    18    26 1   
@<TRIPOS>SUBSTRUCTURE
     1 WF4         1 TEMP              0 ****  ****    0 ROOT
