@<TRIPOS>MOLECULE
WF4
   26    27     1     0     0
SMALL
No Charge or Current Charge


@<TRIPOS>ATOM
      1 C01          3.9720     2.4210     0.0480 c3         1 WF4      -0.107400
      2 C02          3.1180     1.1790    -0.0000 cc         1 WF4       0.259300
      3 C03          3.5280    -0.1380    -0.0710 cd         1 WF4      -0.222600
      4 C04          4.9320    -0.6200    -0.1170 c          1 WF4       0.736600
      5 O05          5.8540     0.1790    -0.0920 o          1 WF4      -0.700500
      6 O06          5.1170    -1.8270    -0.1790 o          1 WF4      -0.700500
      7 S07          2.1440    -1.2210    -0.1030 ss         1 WF4       0.029600
      8 C08          1.1160     0.2060    -0.0170 cd         1 WF4       0.362900
      9 C09         -0.3670     0.1150     0.0020 ca         1 WF4      -0.042500
     10 C10         -1.1600     1.2830     0.0850 ca         1 WF4      -0.111500
     11 C11         -2.5630     1.2060     0.1030 ca         1 WF4      -0.067000
     12 C12         -3.2140    -0.0420     0.0440 ca         1 WF4      -0.221300
     13 C13         -4.7460    -0.1270     0.0520 c3         1 WF4       0.355300
     14 F14         -5.2460    -0.0840    -1.2030 f          1 WF4      -0.122333
     15 F15         -5.1940    -1.2720     0.6180 f          1 WF4      -0.122333
     16 F16         -5.3140     0.8900     0.7400 f          1 WF4      -0.122333
     17 C17         -2.4310    -1.2100    -0.0500 ca         1 WF4      -0.067000
     18 C18         -1.0270    -1.1330    -0.0680 ca         1 WF4      -0.111500
     19 N19          1.7570     1.3680     0.0300 nc         1 WF4      -0.658000
     20 H1           3.3630     3.3310     0.1020 hc         1 WF4       0.042700
     21 H2           4.6260     2.4100     0.9270 hc         1 WF4       0.042700
     22 H3           4.5990     2.4970    -0.8480 hc         1 WF4       0.042700
     23 H5          -0.6910     2.2630     0.1350 ha         1 WF4       0.135000
     24 H6          -3.1410     2.1270     0.1610 ha         1 WF4       0.117500
     25 H7          -2.9060    -2.1880    -0.1120 ha         1 WF4       0.117500
     26 H8          -0.4640    -2.0590    -0.1390 ha         1 WF4       0.135000
@<TRIPOS>BOND
     1     1     2 1   
     2     1    20 1   
     3     1    21 1   
     4     1    22 1   
     5     2     3 2   
     6     2    19 1   
     7     3     4 1   
     8     3     7 1   
     9     4     5 1   
    10     4     6 1   
    11     7     8 1   
    12     8     9 1   
    13     8    19 2   
    14     9    10 ar  
    15     9    18 ar  
    16    10    11 ar  
    17    10    23 1   
    18    11    12 ar  
    19    11    24 1   
    20    12    13 1   
    21    12    17 ar  
    22    13    14 1   
    23    13    15 1   
    24    13    16 1   
    25    17    18 ar  
    26    17    25 1   
    27    18    26 1   
@<TRIPOS>SUBSTRUCTURE
     1 WF4         1 TEMP              0 ****  ****    0 ROOT
