@<TRIPOS>MOLECULE
WF7
   61    64     1     0     0
SMALL
No Charge or Current Charge


@<TRIPOS>ATOM
      1 N4          52.6740    23.2030     2.6020 na         1 WF7      -0.019200
      2 C24         46.7810    22.5080     9.4520 ca         1 WF7      -0.063500
      3 C23         45.4150    22.5960     9.7730 ca         1 WF7      -0.155500
      4 N3          53.4110    22.4790     5.8320 nu         1 WF7      -0.896800
      5 C22         40.3940    22.4560    13.2280 c2         1 WF7      -0.223000
      6 C20         42.8050    22.3380    12.4840 c          1 WF7       0.606300
      7 C18         45.9160    22.0710    12.0850 ca         1 WF7      -0.155500
      8 C19         44.9670    22.3800    11.0880 ca         1 WF7      -0.012000
      9 C17         47.2830    21.9830    11.7640 ca         1 WF7      -0.063500
     10 C15         49.1900    22.0970    10.1440 ce         1 WF7      -0.104200
     11 C16         47.7300    22.2000    10.4470 ca         1 WF7      -0.091800
     12 N2          54.2710    21.4550    10.5060 nh         1 WF7      -0.775300
     13 C21         41.3400    22.5500    12.2590 ce         1 WF7      -0.304200
     14 C13         51.2800    22.1570     8.6670 ca         1 WF7       0.254800
     15 C4          53.8220    20.5160    11.5930 c6         1 WF7       0.219300
     16 C5          54.6100    20.7010    12.9300 c6         1 WF7       0.149300
     17 O1          43.2540    22.0600    13.5890 o          1 WF7      -0.584100
     18 N1          56.0910    20.6520    12.7450 n3         1 WF7      -0.715600
     19 C6          53.4190    21.7650     9.4200 ca         1 WF7       0.414900
     20 C3          55.7650    21.5290    10.3720 c6         1 WF7       0.219300
     21 C2          56.5010    21.6810    11.7430 c6         1 WF7       0.149300
     22 C7          53.8990    21.9710     8.1190 ca         1 WF7      -0.363000
     23 C12         50.1490    23.5780     2.2110 c3         1 WF7      -0.031800
     24 C11         51.3540    23.2690     3.0550 cc         1 WF7      -0.122300
     25 C10         51.4590    22.9940     4.3890 cd         1 WF7      -0.221000
     26 C9          52.8230    22.7810     4.6520 cd         1 WF7       0.516900
     27 C8          52.9690    22.2740     7.1270 ca         1 WF7       0.417900
     28 N8          52.1040    21.8590     9.6900 nb         1 WF7      -0.289000
     29 N5          53.5920    22.8970     3.6030 nc         1 WF7      -0.588800
     30 N6          51.6590    22.3700     7.3940 nb         1 WF7      -0.270000
     31 H1          52.9770    23.3570     1.6400 hn         1 WF7       0.369000
     32 H2          47.0870    22.6820     8.4240 ha         1 WF7       0.116000
     33 H3          44.7010    22.8360     8.9880 ha         1 WF7       0.129500
     34 H4          54.4140    22.3850     5.7160 hn         1 WF7       0.508000
     35 H5          40.6450    22.2140    14.2620 ha         1 WF7       0.179500
     36 H6          39.3360    22.6190    13.0140 ha         1 WF7       0.179500
     37 H8          45.6210    21.8960    13.1140 ha         1 WF7       0.129500
     38 H9          47.9960    21.7430    12.5500 ha         1 WF7       0.116000
     39 H10         49.7980    21.8550    11.0190 ha         1 WF7       0.190000
     40 H11         41.0490    22.7930    11.2380 ha         1 WF7       0.177000
     41 H13         49.2450    22.5020     8.0740 ha         1 WF7       0.189000
     42 H14         56.5350    19.9740    14.7160 h1         1 WF7       0.033700
     43 H15         57.9120    20.6880    13.8510 h1         1 WF7       0.033700
     44 H16         56.6300    21.7380    14.5020 h1         1 WF7       0.033700
     45 H17         52.7550    20.6490    11.8210 h1         1 WF7       0.056950
     46 H18         53.9500    19.4780    11.2550 h1         1 WF7       0.056950
     47 H19         54.3190    21.6650    13.3730 h1         1 WF7       0.042200
     48 H20         54.2890    19.9180    13.6330 h1         1 WF7       0.042200
     49 H22         56.1370    20.6230     9.8720 h1         1 WF7       0.056950
     50 H23         56.0530    22.3900     9.7510 h1         1 WF7       0.056950
     51 H24         57.5850    21.6270    11.5640 h1         1 WF7       0.042200
     52 H25         56.2940    22.6880    12.1360 h1         1 WF7       0.042200
     53 H26         54.9520    21.8870     7.8760 ha         1 WF7       0.127000
     54 H27         50.0320    22.8400     1.4100 hc         1 WF7       0.051700
     55 H28         49.2330    23.5680     2.8140 hc         1 WF7       0.051700
     56 H29         50.2360    24.5690     1.7500 hc         1 WF7       0.051700
     57 H30         50.6430    22.9510     5.0970 ha         1 WF7       0.168000
     58 H31         43.0300    22.7170    10.5100 hn         1 WF7       0.150000
     59 C14         49.8400    22.2610     8.9540 cf         1 WF7      -0.283800
     60 C1          56.8300    20.7710    14.0210 c3         1 WF7       0.150100
     61 N7          43.5690    22.4870    11.3340 ns         1 WF7      -0.143000
@<TRIPOS>BOND
     1     1    24 1   
     2     1    29 1   
     3     1    31 1   
     4     2     3 ar  
     5     2    11 ar  
     6     2    32 1   
     7     3     8 ar  
     8     3    33 1   
     9     4    26 1   
    10     4    27 1   
    11     4    34 1   
    12     5    13 2   
    13     5    35 1   
    14     5    36 1   
    15     6    13 1   
    16     6    17 2   
    17     6    61 1   
    18     7     8 ar  
    19     7     9 ar  
    20     7    37 1   
    21     8    61 1   
    22     9    11 ar  
    23     9    38 1   
    24    10    11 1   
    25    10    39 1   
    26    10    59 2   
    27    12    15 1   
    28    12    19 1   
    29    12    20 1   
    30    13    40 1   
    31    14    28 ar  
    32    14    30 ar  
    33    14    59 1   
    34    15    16 1   
    35    15    45 1   
    36    15    46 1   
    37    16    18 1   
    38    16    47 1   
    39    16    48 1   
    40    18    21 1   
    41    18    60 1   
    42    19    22 ar  
    43    19    28 ar  
    44    20    21 1   
    45    20    49 1   
    46    20    50 1   
    47    21    51 1   
    48    21    52 1   
    49    22    27 ar  
    50    22    53 1   
    51    23    24 1   
    52    23    54 1   
    53    23    55 1   
    54    23    56 1   
    55    24    25 2   
    56    25    26 1   
    57    25    57 1   
    58    26    29 2   
    59    27    30 ar  
    60    41    59 1   
    61    42    60 1   
    62    43    60 1   
    63    44    60 1   
    64    58    61 1   
@<TRIPOS>SUBSTRUCTURE
     1 WF7         1 TEMP              0 ****  ****    0 ROOT
