@<TRIPOS>MOLECULE
WF7
   61    64     1     0     0
SMALL
abcg2


@<TRIPOS>ATOM
      1 N4          52.5410    23.1480     2.6630 na         1 WF7      -0.019200
      2 C24         46.9020    22.7780     9.4650 ca         1 WF7      -0.063500
      3 C23         45.5650    22.8620     9.7920 ca         1 WF7      -0.155500
      4 N3          53.4680    22.3970     5.8850 nu         1 WF7      -0.896800
      5 C22         40.6840    22.0860    13.1950 c2         1 WF7      -0.223000
      6 C20         43.0010    22.1310    12.3720 c          1 WF7       0.606300
      7 C18         46.0150    21.8890    11.9540 ca         1 WF7      -0.155500
      8 C19         45.0990    22.4150    11.0390 ca         1 WF7      -0.012000
      9 C17         47.3580    21.8150    11.6120 ca         1 WF7      -0.063500
     10 C15         49.2570    22.1150    10.0750 ce         1 WF7      -0.104200
     11 C16         47.8370    22.2450    10.3690 ca         1 WF7      -0.091800
     12 N2          54.1940    21.3870    10.5310 nh         1 WF7      -0.775300
     13 C21         41.5500    22.4360    12.2500 ce         1 WF7      -0.304200
     14 C13         51.3030    22.1900     8.6710 ca         1 WF7       0.254800
     15 C4          53.5960    20.8650    11.7600 c6         1 WF7       0.219300
     16 C5          54.4530    21.2030    12.9660 c6         1 WF7       0.149300
     17 O1          43.4880    21.5690    13.3490 o          1 WF7      -0.584100
     18 N1          55.8190    20.7240    12.7900 n3         1 WF7      -0.715600
     19 C6          53.4020    21.6860     9.4560 ca         1 WF7       0.414900
     20 C3          55.5950    21.0220    10.3580 c6         1 WF7       0.219300
     21 C2          56.3990    21.3450    11.6070 c6         1 WF7       0.149300
     22 C7          53.9090    21.8490     8.1600 ca         1 WF7      -0.363000
     23 C12         50.1380    23.7300     2.3450 c3         1 WF7      -0.031800
     24 C11         51.3110    23.3440     3.1780 cc         1 WF7      -0.122300
     25 C10         51.4150    23.0900     4.5350 cd         1 WF7      -0.221000
     26 C9          52.7710    22.7410     4.7350 cd         1 WF7       0.516900
     27 C8          53.0050    22.2190     7.1610 ca         1 WF7       0.417900
     28 N8          52.0820    21.8450     9.6930 nb         1 WF7      -0.289000
     29 N5          53.4590    22.7770     3.5920 nc         1 WF7      -0.588800
     30 N6          51.6990    22.3990     7.4070 nb         1 WF7      -0.270000
     31 H1          52.8250    23.2520     1.7020 hn         1 WF7       0.369000
     32 H2          47.2240    23.1350     8.4960 ha         1 WF7       0.116000
     33 H3          44.8590    23.2780     9.0820 ha         1 WF7       0.129500
     34 H4          54.4550    22.2410     5.7420 hn         1 WF7       0.508000
     35 H5          41.0140    21.5660    14.0860 ha         1 WF7       0.179500
     36 H6          39.6290    22.3080    13.1010 ha         1 WF7       0.179500
     37 H8          45.6770    21.5440    12.9170 ha         1 WF7       0.129500
     38 H9          48.0580    21.4060    12.3300 ha         1 WF7       0.116000
     39 H10         49.8720    21.7670    10.8990 ha         1 WF7       0.190000
     40 H11         41.2180    22.9550    11.3580 ha         1 WF7       0.177000
     41 H13         49.3070    22.6880     8.0380 ha         1 WF7       0.189000
     42 H14         56.1850    20.4710    14.8340 h1         1 WF7       0.033700
     43 H15         57.6340    20.5740    13.8180 h1         1 WF7       0.033700
     44 H16         56.7160    22.0460    14.2040 h1         1 WF7       0.033700
     45 H17         52.6070    21.2930    11.8760 h1         1 WF7       0.056950
     46 H18         53.4910    19.7750    11.6810 h1         1 WF7       0.056950
     47 H19         54.4380    22.2950    13.1300 h1         1 WF7       0.042200
     48 H20         54.0210    20.7280    13.8490 h1         1 WF7       0.042200
     49 H22         55.6800    19.9510    10.1280 h1         1 WF7       0.056950
     50 H23         56.0230    21.5810     9.5300 h1         1 WF7       0.056950
     51 H24         57.4170    20.9770    11.4730 h1         1 WF7       0.042200
     52 H25         56.4520    22.4420    11.7250 h1         1 WF7       0.042200
     53 H26         54.9460    21.6980     7.9110 ha         1 WF7       0.127000
     54 H27         49.6990    22.8560     1.8560 hc         1 WF7       0.051700
     55 H28         49.3710    24.1890     2.9660 hc         1 WF7       0.051700
     56 H29         50.4260    24.4380     1.5660 hc         1 WF7       0.051700
     57 H30         50.6380    23.1480     5.2710 ha         1 WF7       0.168000
     58 H31         43.2000    22.9710    10.5440 hn         1 WF7       0.150000
     59 C14         49.8660    22.3610     8.9050 cf         1 WF7      -0.283800
     60 C1          56.6300    20.9710    13.9720 c3         1 WF7       0.150100
     61 N7          43.7270    22.5370    11.2870 ns         1 WF7      -0.143000
@<TRIPOS>BOND
     1     1    24 1   
     2     1    29 1   
     3     1    31 1   
     4     2     3 ar  
     5     2    11 ar  
     6     2    32 1   
     7     3     8 ar  
     8     3    33 1   
     9     4    26 1   
    10     4    27 1   
    11     4    34 1   
    12     5    13 2   
    13     5    35 1   
    14     5    36 1   
    15     6    13 1   
    16     6    17 2   
    17     6    61 1   
    18     7     8 ar  
    19     7     9 ar  
    20     7    37 1   
    21     8    61 1   
    22     9    11 ar  
    23     9    38 1   
    24    10    11 1   
    25    10    39 1   
    26    10    59 2   
    27    12    15 1   
    28    12    19 1   
    29    12    20 1   
    30    13    40 1   
    31    14    28 ar  
    32    14    30 ar  
    33    14    59 1   
    34    15    16 1   
    35    15    45 1   
    36    15    46 1   
    37    16    18 1   
    38    16    47 1   
    39    16    48 1   
    40    18    21 1   
    41    18    60 1   
    42    19    22 ar  
    43    19    28 ar  
    44    20    21 1   
    45    20    49 1   
    46    20    50 1   
    47    21    51 1   
    48    21    52 1   
    49    22    27 ar  
    50    22    53 1   
    51    23    24 1   
    52    23    54 1   
    53    23    55 1   
    54    23    56 1   
    55    24    25 2   
    56    25    26 1   
    57    25    57 1   
    58    26    29 2   
    59    27    30 ar  
    60    41    59 1   
    61    42    60 1   
    62    43    60 1   
    63    44    60 1   
    64    58    61 1   
@<TRIPOS>SUBSTRUCTURE
     1 WF7         1 TEMP              0 ****  ****    0 ROOT
