@<TRIPOS>MOLECULE
WF8
   38    40     1     0     0
SMALL
No Charge or Current Charge


@<TRIPOS>ATOM
      1 CAG         -3.7330     0.6110     0.9300 ca         1 WF8      -0.085500
      2 CAE         -5.0910     0.2470     0.9720 ca         1 WF8      -0.108500
      3 CAD         -5.5890    -0.7150     0.0770 ca         1 WF8      -0.106000
      4 CAF         -4.7290    -1.3150    -0.8580 ca         1 WF8      -0.108500
      5 CAH         -3.3720    -0.9520    -0.9000 ca         1 WF8      -0.085500
      6 CAP         -2.8630     0.0190    -0.0100 ca         1 WF8       0.054600
      7 NAV         -1.4710     0.3790    -0.0510 n          1 WF8      -0.049000
      8 NAM         -0.6000    -0.6950     0.0280 nc         1 WF8      -0.356300
      9 CAT         -1.0630     1.7340    -0.1350 c          1 WF8       0.569200
     10 OAC         -1.8380     2.6790    -0.2140 o          1 WF8      -0.547000
     11 CAJ          0.3870     1.9210    -0.1310 cc         1 WF8      -0.459200
     12 CAR          1.2780     0.8730    -0.0570 cd         1 WF8       0.176400
     13 NAN          2.6360     1.1310    -0.0590 nu         1 WF8      -0.817200
     14 CAU          3.3350     2.4100    -0.2320 c3         1 WF8       0.238500
     15 CAB          3.4550     3.1240     1.1280 c3         1 WF8      -0.111100
     16 CAA          4.7110     2.1430    -0.8670 c3         1 WF8      -0.111100
     17 CAS          0.7270    -0.4940     0.0250 cd         1 WF8       0.256600
     18 CAQ          1.5930    -1.6810     0.1080 cd         1 WF8       0.541700
     19 NAK          1.1000    -2.9850     0.1870 nd         1 WF8      -0.659000
     20 CAI          2.1650    -3.7610     0.2450 cc         1 WF8       0.417400
     21 NAO          3.2730    -2.9630     0.2030 na         1 WF8      -0.185700
     22 NAL          2.9310    -1.6440     0.1170 nc         1 WF8      -0.576800
     23 HAG         -3.3560     1.3490     1.6340 ha         1 WF8       0.127000
     24 HAE         -5.7550     0.7080     1.6990 ha         1 WF8       0.114500
     25 HAD         -6.6400    -0.9960     0.1100 ha         1 WF8       0.112000
     26 HAF         -5.1140    -2.0610    -1.5500 ha         1 WF8       0.114500
     27 HAH         -2.7130    -1.4200    -1.6270 ha         1 WF8       0.127000
     28 HAJ          0.6970     2.9550    -0.1890 ha         1 WF8       0.212000
     29 HAN          3.2240     0.2880     0.0030 hn         1 WF8       0.522000
     30 HAU          2.7750     3.0570    -0.9210 h1         1 WF8       0.062700
     31 HAB1         3.9660     4.0870     1.0110 hc         1 WF8       0.044867
     32 HAB2         2.4640     3.3170     1.5570 hc         1 WF8       0.044867
     33 HAB3         4.0250     2.5170     1.8410 hc         1 WF8       0.044867
     34 HAA1         4.5990     1.6480    -1.8390 hc         1 WF8       0.044867
     35 HAA2         5.2470     3.0860    -1.0290 hc         1 WF8       0.044867
     36 HAA3         5.3280     1.5050    -0.2220 hc         1 WF8       0.044867
     37 HAO          4.2370    -3.2880     0.2320 hn         1 WF8       0.383000
     38 HAI          2.2010    -4.8430     0.3140 h5         1 WF8       0.069100
@<TRIPOS>BOND
     1     1     2 ar  
     2     1     6 ar  
     3     1    23 1   
     4     2     3 ar  
     5     2    24 1   
     6     3     4 ar  
     7     3    25 1   
     8     4     5 ar  
     9     4    26 1   
    10     5     6 ar  
    11     5    27 1   
    12     6     7 1   
    13     7     8 1   
    14     7     9 1   
    15     8    17 2   
    16     9    10 2   
    17     9    11 1   
    18    11    12 2   
    19    11    28 1   
    20    12    13 1   
    21    12    17 1   
    22    13    14 1   
    23    13    29 1   
    24    14    15 1   
    25    14    16 1   
    26    14    30 1   
    27    15    31 1   
    28    15    32 1   
    29    15    33 1   
    30    16    34 1   
    31    16    35 1   
    32    16    36 1   
    33    17    18 1   
    34    18    19 1   
    35    18    22 2   
    36    19    20 2   
    37    20    21 1   
    38    20    38 1   
    39    21    22 1   
    40    21    37 1   
@<TRIPOS>SUBSTRUCTURE
     1 WF8         1 TEMP              0 ****  ****    0 ROOT
