@<TRIPOS>MOLECULE
WF8
   38    40     1     0     0
SMALL
abcg2


@<TRIPOS>ATOM
      1 CAG         -3.6030     0.5330     1.0220 ca         1 WF8      -0.085500
      2 CAE         -4.9370     0.1530     1.0540 ca         1 WF8      -0.108500
      3 CAD         -5.4390    -0.7270     0.1040 ca         1 WF8      -0.106000
      4 CAF         -4.6010    -1.2310    -0.8820 ca         1 WF8      -0.108500
      5 CAH         -3.2670    -0.8510    -0.9240 ca         1 WF8      -0.085500
      6 CAP         -2.7750     0.0280     0.0300 ca         1 WF8       0.054600
      7 NAV         -1.3960     0.3900    -0.0060 n          1 WF8      -0.049000
      8 NAM         -0.5550    -0.6190     0.0720 nc         1 WF8      -0.356300
      9 CAT         -1.0190     1.7270    -0.1840 c          1 WF8       0.569200
     10 OAC         -1.8810     2.5940    -0.2930 o          1 WF8      -0.547000
     11 CAJ          0.3840     1.9380    -0.2210 cc         1 WF8      -0.459200
     12 CAR          1.2900     0.9040    -0.1230 cd         1 WF8       0.176400
     13 NAN          2.6160     1.0680    -0.1730 nu         1 WF8      -0.817200
     14 CAU          3.2910     2.3510    -0.2700 c3         1 WF8       0.238500
     15 CAB          3.3050     3.0860     1.0670 c3         1 WF8      -0.111100
     16 CAA          4.7010     2.1120    -0.7900 c3         1 WF8      -0.111100
     17 CAS          0.7200    -0.4280     0.0210 cd         1 WF8       0.256600
     18 CAQ          1.5240    -1.6520     0.1170 cd         1 WF8       0.541700
     19 NAK          0.9840    -2.8890     0.1950 nd         1 WF8      -0.659000
     20 CAI          2.0350    -3.6700     0.2630 cc         1 WF8       0.417400
     21 NAO          3.1470    -2.9380     0.2290 na         1 WF8      -0.185700
     22 NAL          2.8410    -1.6490     0.1360 nc         1 WF8      -0.576800
     23 HAG         -3.2110     1.2040     1.7740 ha         1 WF8       0.127000
     24 HAE         -5.5840     0.5430     1.8290 ha         1 WF8       0.114500
     25 HAD         -6.4800    -1.0220     0.1340 ha         1 WF8       0.112000
     26 HAF         -4.9860    -1.9170    -1.6250 ha         1 WF8       0.114500
     27 HAH         -2.6120    -1.2400    -1.6930 ha         1 WF8       0.127000
     28 HAJ          0.7100     2.9610    -0.3400 ha         1 WF8       0.212000
     29 HAN          3.1900     0.2450    -0.0430 hn         1 WF8       0.522000
     30 HAU          2.7580     2.9600    -1.0070 h1         1 WF8       0.062700
     31 HAB1         3.7750     4.0640     0.9550 hc         1 WF8       0.044867
     32 HAB2         2.2990     3.2440     1.4550 hc         1 WF8       0.044867
     33 HAB3         3.8690     2.5190     1.8090 hc         1 WF8       0.044867
     34 HAA1         4.6860     1.6200    -1.7630 hc         1 WF8       0.044867
     35 HAA2         5.2260     3.0600    -0.8990 hc         1 WF8       0.044867
     36 HAA3         5.2740     1.4920    -0.0980 hc         1 WF8       0.044867
     37 HAO          4.1090    -3.2420     0.2610 hn         1 WF8       0.383000
     38 HAI          2.0370    -4.7460     0.3360 h5         1 WF8       0.069100
@<TRIPOS>BOND
     1     1     2 ar  
     2     1     6 ar  
     3     1    23 1   
     4     2     3 ar  
     5     2    24 1   
     6     3     4 ar  
     7     3    25 1   
     8     4     5 ar  
     9     4    26 1   
    10     5     6 ar  
    11     5    27 1   
    12     6     7 1   
    13     7     8 1   
    14     7     9 1   
    15     8    17 2   
    16     9    10 2   
    17     9    11 1   
    18    11    12 2   
    19    11    28 1   
    20    12    13 1   
    21    12    17 1   
    22    13    14 1   
    23    13    29 1   
    24    14    15 1   
    25    14    16 1   
    26    14    30 1   
    27    15    31 1   
    28    15    32 1   
    29    15    33 1   
    30    16    34 1   
    31    16    35 1   
    32    16    36 1   
    33    17    18 1   
    34    18    19 1   
    35    18    22 2   
    36    19    20 2   
    37    20    21 1   
    38    20    38 1   
    39    21    22 1   
    40    21    37 1   
@<TRIPOS>SUBSTRUCTURE
     1 WF8         1 TEMP              0 ****  ****    0 ROOT
