@<TRIPOS>MOLECULE
WFA
   59    61     1     0     0
SMALL
No Charge or Current Charge


@<TRIPOS>ATOM
      1 C16         -7.7510    17.2520    15.9750 ca         1 WFA       0.302000
      2 C17         -6.8110    18.2370    16.3340 ca         1 WFA      -0.187000
      3 C18         -7.0950    19.5980    16.1370 ca         1 WFA      -0.098000
      4 C19         -8.3240    19.9820    15.5800 ca         1 WFA      -0.156000
      5 C20         -9.2730    19.0090    15.2210 ca         1 WFA      -0.115000
      6 C21         -9.0090    17.6350    15.4120 ca         1 WFA       0.203000
      7 C26        -10.6210    14.5910    13.7330 c6         1 WFA      -0.054400
      8 C27         -9.7900    15.9010    13.7660 c6         1 WFA       0.178300
      9 C28        -12.9690    13.5580    13.9840 c          1 WFA       0.723000
     10 C01         -6.3750    17.2000    12.3700 c3         1 WFA      -0.087100
     11 C03         -6.7440    14.8490    11.4280 ca         1 WFA       0.188300
     12 C05         -8.2880    14.0320     9.9560 ca         1 WFA       0.396900
     13 C08         -7.9560    12.8080    11.8340 ca         1 WFA       0.394900
     14 C10         -7.0020    13.7570    12.2930 ca         1 WFA      -0.119900
     15 C12         -6.9610    13.1910    14.7090 c3         1 WFA       0.152600
     16 C13         -6.1940    13.7520    15.9240 c3         1 WFA      -0.083400
     17 C23        -11.4230    16.9270    15.3400 c6         1 WFA       0.178300
     18 C24        -12.2650    15.6270    15.3510 c6         1 WFA      -0.054400
     19 C25        -12.1250    14.8540    14.0120 c6         1 WFA      -0.192700
     20 N04         -7.3980    14.9840    10.2550 nb         1 WFA      -0.277000
     21 N07         -8.5980    12.9460    10.6690 nb         1 WFA      -0.331000
     22 N15         -7.4500    15.8960    16.1660 nu         1 WFA      -0.936200
     23 N22         -9.9880    16.6610    15.0340 nh         1 WFA      -0.784400
     24 O11         -6.3310    13.6810    13.5090 os         1 WFA      -0.355100
     25 H1          -5.8570    17.9520    16.7680 ha         1 WFA       0.103000
     26 H2          -6.3640    20.3530    16.4150 ha         1 WFA       0.095000
     27 H3          -8.5420    21.0360    15.4240 ha         1 WFA       0.100000
     28 H4         -10.2140    19.3270    14.7820 ha         1 WFA       0.111000
     29 H5         -10.5010    14.1060    12.7560 hc         1 WFA       0.046950
     30 H6         -10.2250    13.8900    14.4790 hc         1 WFA       0.046950
     31 H7          -8.7300    15.6430    13.6410 h1         1 WFA       0.018700
     32 H8         -10.0760    16.5310    12.9110 h1         1 WFA       0.018700
     33 H9          -5.6160    17.9660    12.5680 hc         1 WFA       0.044700
     34 H10         -7.1250    17.6260    11.6930 hc         1 WFA       0.044700
     35 H11         -6.8650    16.9560    13.3170 hc         1 WFA       0.044700
     36 H12         -4.9610    15.5660    12.4390 hc         1 WFA       0.063200
     37 H13         -5.1930    16.2360    10.8410 hc         1 WFA       0.063200
     38 H14         -8.0050    13.5230    14.7610 h1         1 WFA       0.045200
     39 H15         -6.9420    12.0950    14.7470 h1         1 WFA       0.045200
     40 H16         -6.6560    13.3780    16.8460 hc         1 WFA       0.047200
     41 H17         -5.1720    13.3560    15.9050 hc         1 WFA       0.047200
     42 H18         -5.4620    15.5910    16.7990 h1         1 WFA       0.032700
     43 H19         -5.6740    15.6630    15.0440 h1         1 WFA       0.032700
     44 H20        -11.5140    17.4130    16.3220 h1         1 WFA       0.018700
     45 H21        -11.8420    17.6160    14.5910 h1         1 WFA       0.018700
     46 H22        -13.3200    15.8750    15.5330 hc         1 WFA       0.046950
     47 H23        -11.9430    14.9940    16.1890 hc         1 WFA       0.046950
     48 H24        -12.5020    15.5030    13.2080 hc         1 WFA       0.022700
     49 H25         -8.5840    14.8440     8.1060 hn         1 WFA       0.477000
     50 H26         -9.4510    13.3730     8.4110 hn         1 WFA       0.477000
     51 H27         -8.7960    10.9560    11.9500 hn         1 WFA       0.487000
     52 H28         -7.5840    11.2750    13.1300 hn         1 WFA       0.487000
     53 H29         -8.2470    15.3260    15.8770 hn         1 WFA       0.492000
     54 O29        -13.8500    13.4670    13.1410 o          1 WFA      -0.734500
     55 C14         -6.1230    15.2920    15.9750 c3         1 WFA       0.211800
     56 N06         -8.9370    14.1690     8.7790 nv         1 WFA      -1.048900
     57 C02         -5.7280    15.9430    11.7530 c3         1 WFA      -0.136700
     58 O30        -12.7340    12.6870    14.8100 o          1 WFA      -0.734500
     59 N09         -8.2620    11.6450    12.4720 nv         1 WFA      -1.067900
@<TRIPOS>BOND
     1     1     2 ar  
     2     1     6 ar  
     3     1    22 1   
     4     2     3 ar  
     5     2    25 1   
     6     3     4 ar  
     7     3    26 1   
     8     4     5 ar  
     9     4    27 1   
    10     5     6 ar  
    11     5    28 1   
    12     6    23 1   
    13     7     8 1   
    14     7    19 1   
    15     7    29 1   
    16     7    30 1   
    17     8    23 1   
    18     8    31 1   
    19     8    32 1   
    20     9    19 1   
    21     9    54 1   
    22     9    58 1   
    23    10    33 1   
    24    10    34 1   
    25    10    35 1   
    26    10    57 1   
    27    11    14 ar  
    28    11    20 ar  
    29    11    57 1   
    30    12    20 ar  
    31    12    21 ar  
    32    12    56 1   
    33    13    14 ar  
    34    13    21 ar  
    35    13    59 1   
    36    14    24 1   
    37    15    16 1   
    38    15    24 1   
    39    15    38 1   
    40    15    39 1   
    41    16    40 1   
    42    16    41 1   
    43    16    55 1   
    44    17    18 1   
    45    17    23 1   
    46    17    44 1   
    47    17    45 1   
    48    18    19 1   
    49    18    46 1   
    50    18    47 1   
    51    19    48 1   
    52    22    53 1   
    53    22    55 1   
    54    36    57 1   
    55    37    57 1   
    56    42    55 1   
    57    43    55 1   
    58    49    56 1   
    59    50    56 1   
    60    51    59 1   
    61    52    59 1   
@<TRIPOS>SUBSTRUCTURE
     1 WFA         1 TEMP              0 ****  ****    0 ROOT
