@<TRIPOS>MOLECULE
WFA
   59    61     1     0     0
SMALL
abcg2


@<TRIPOS>ATOM
      1 C16         -7.7240    17.1400    15.9180 ca         1 WFA       0.302000
      2 C17         -6.5650    17.8670    16.1980 ca         1 WFA      -0.187000
      3 C18         -6.6360    19.2050    16.5720 ca         1 WFA      -0.098000
      4 C19         -7.8610    19.8380    16.6860 ca         1 WFA      -0.156000
      5 C20         -9.0230    19.1240    16.4040 ca         1 WFA      -0.115000
      6 C21         -8.9780    17.7920    16.0200 ca         1 WFA       0.203000
      7 C26        -11.4220    15.7620    14.0790 c6         1 WFA      -0.054400
      8 C27        -10.4090    16.8700    14.3180 c6         1 WFA       0.178300
      9 C28        -13.7580    14.8720    14.6870 c          1 WFA       0.723000
     10 C01         -9.0890    15.6170    11.0590 c3         1 WFA      -0.087100
     11 C03         -6.8770    14.4460    10.8820 ca         1 WFA       0.188300
     12 C05         -6.3260    13.0590     9.1650 ca         1 WFA       0.396900
     13 C08         -5.5740    12.4820    11.2250 ca         1 WFA       0.394900
     14 C10         -6.2070    13.6270    11.7630 ca         1 WFA      -0.119900
     15 C12         -7.1610    13.3660    13.8960 c3         1 WFA       0.152600
     16 C13         -6.8070    13.5520    15.3570 c3         1 WFA      -0.083400
     17 C23        -11.3290    17.3480    16.4910 c6         1 WFA       0.178300
     18 C24        -12.3630    16.2430    16.3380 c6         1 WFA      -0.054400
     19 C25        -12.7040    15.9910    14.8710 c6         1 WFA      -0.192700
     20 N04         -6.9340    14.1660     9.5730 nb         1 WFA      -0.277000
     21 N07         -5.6390    12.2080     9.9290 nb         1 WFA      -0.331000
     22 N15         -7.7050    15.8160    15.5450 nu         1 WFA      -0.936200
     23 N22        -10.1290    17.0220    15.7420 nh         1 WFA      -0.784400
     24 O11         -6.0950    13.8800    13.1000 os         1 WFA      -0.355100
     25 H1          -5.5960    17.3890    16.1370 ha         1 WFA       0.103000
     26 H2          -5.7210    19.7420    16.7870 ha         1 WFA       0.095000
     27 H3          -7.9210    20.8760    16.9860 ha         1 WFA       0.100000
     28 H4          -9.9820    19.6200    16.4900 ha         1 WFA       0.111000
     29 H5         -11.6340    15.7040    13.0100 hc         1 WFA       0.046950
     30 H6         -10.9720    14.8050    14.3640 hc         1 WFA       0.046950
     31 H7          -9.4780    16.6420    13.7980 h1         1 WFA       0.018700
     32 H8         -10.7860    17.8180    13.8960 h1         1 WFA       0.018700
     33 H9          -9.5760    16.5520    11.3340 hc         1 WFA       0.044700
     34 H10         -9.2980    15.4280    10.0070 hc         1 WFA       0.044700
     35 H11         -9.5490    14.8190    11.6440 hc         1 WFA       0.044700
     36 H12         -7.4020    15.8990    12.3740 hc         1 WFA       0.063200
     37 H13         -7.1680    16.5350    10.7580 hc         1 WFA       0.063200
     38 H14         -8.0950    13.8820    13.6470 h1         1 WFA       0.045200
     39 H15         -7.3120    12.3010    13.6870 h1         1 WFA       0.045200
     40 H16         -7.6270    13.1420    15.9540 hc         1 WFA       0.047200
     41 H17         -5.9250    12.9540    15.5980 hc         1 WFA       0.047200
     42 H18         -6.2340    15.0020    16.8290 h1         1 WFA       0.032700
     43 H19         -5.6980    15.3860    15.2050 h1         1 WFA       0.032700
     44 H20        -11.0640    17.4730    17.5430 h1         1 WFA       0.018700
     45 H21        -11.7770    18.3000    16.1580 h1         1 WFA       0.018700
     46 H22        -13.2600    16.5180    16.8940 hc         1 WFA       0.046950
     47 H23        -11.9730    15.3270    16.7940 hc         1 WFA       0.046950
     48 H24        -13.1640    16.9150    14.4860 hc         1 WFA       0.022700
     49 H25         -6.7100    13.4770     7.2220 hn         1 WFA       0.477000
     50 H26         -5.7720    12.0830     7.4760 hn         1 WFA       0.477000
     51 H27         -4.3260    10.9290    11.5910 hn         1 WFA       0.487000
     52 H28         -4.6390    11.9200    12.9490 hn         1 WFA       0.487000
     53 H29         -8.5910    15.3630    15.7340 hn         1 WFA       0.492000
     54 O29        -14.6580    14.8100    15.5500 o          1 WFA      -0.734500
     55 C14         -6.5420    14.9920    15.7740 c3         1 WFA       0.211800
     56 N06         -6.4370    12.7390     7.8480 nv         1 WFA      -1.048900
     57 C02         -7.5870    15.6950    11.3190 c3         1 WFA      -0.136700
     58 O30        -13.6440    14.1390    13.6840 o          1 WFA      -0.734500
     59 N09         -4.9040    11.6300    12.0240 nv         1 WFA      -1.067900
@<TRIPOS>BOND
     1     1     2 ar  
     2     1     6 ar  
     3     1    22 1   
     4     2     3 ar  
     5     2    25 1   
     6     3     4 ar  
     7     3    26 1   
     8     4     5 ar  
     9     4    27 1   
    10     5     6 ar  
    11     5    28 1   
    12     6    23 1   
    13     7     8 1   
    14     7    19 1   
    15     7    29 1   
    16     7    30 1   
    17     8    23 1   
    18     8    31 1   
    19     8    32 1   
    20     9    19 1   
    21     9    54 1   
    22     9    58 1   
    23    10    33 1   
    24    10    34 1   
    25    10    35 1   
    26    10    57 1   
    27    11    14 ar  
    28    11    20 ar  
    29    11    57 1   
    30    12    20 ar  
    31    12    21 ar  
    32    12    56 1   
    33    13    14 ar  
    34    13    21 ar  
    35    13    59 1   
    36    14    24 1   
    37    15    16 1   
    38    15    24 1   
    39    15    38 1   
    40    15    39 1   
    41    16    40 1   
    42    16    41 1   
    43    16    55 1   
    44    17    18 1   
    45    17    23 1   
    46    17    44 1   
    47    17    45 1   
    48    18    19 1   
    49    18    46 1   
    50    18    47 1   
    51    19    48 1   
    52    22    53 1   
    53    22    55 1   
    54    36    57 1   
    55    37    57 1   
    56    42    55 1   
    57    43    55 1   
    58    49    56 1   
    59    50    56 1   
    60    51    59 1   
    61    52    59 1   
@<TRIPOS>SUBSTRUCTURE
     1 WFA         1 TEMP              0 ****  ****    0 ROOT
