@<TRIPOS>MOLECULE
WFB
   45    48     1     0     0
SMALL
No Charge or Current Charge


@<TRIPOS>ATOM
      1 C4          12.3390    24.2600     2.7550 ca         1 WFB      -0.104000
      2 C14          7.9540    20.8760    11.8770 ca         1 WFB      -0.127900
      3 C5          11.5420    25.2780     3.3320 cp         1 WFB      -0.017000
      4 C6          10.6020    24.9820     4.4600 cp         1 WFB      -0.024000
      5 C11          8.5860    22.3190     9.4930 ca         1 WFB      -0.101900
      6 C7           9.3530    25.6670     4.5790 ca         1 WFB      -0.121000
      7 C8           8.4590    25.3960     5.6390 ca         1 WFB      -0.049000
      8 C9           8.8240    24.4310     6.5860 ca         1 WFB       0.078400
      9 C10          8.9050    23.0740     8.2680 cc         1 WFB       0.473400
     10 C12          9.4700    21.3430    10.0050 ca         1 WFB      -0.091000
     11 C13          9.1560    20.6280    11.1740 ca         1 WFB      -0.083000
     12 N1          14.8100    27.3530    -0.0520 nv         1 WFB      -1.043200
     13 N2          14.6560    25.2440    -0.7870 n2         1 WFB      -0.845100
     14 C3          13.2210    24.5330     1.6950 ca         1 WFB      -0.088500
     15 N3           8.1090    24.0070     7.7020 nd         1 WFB      -0.571100
     16 C15          7.5900    20.0960    13.1080 ce         1 WFB       0.658800
     17 C16          7.0610    21.8350    11.3490 ca         1 WFB      -0.083000
     18 C17          7.3760    22.5500    10.1810 ca         1 WFB      -0.091000
     19 C18         10.0130    23.7740     6.4800 ca         1 WFB      -0.077200
     20 C19         10.9270    24.0100     5.4470 ca         1 WFB      -0.102000
     21 C2          13.3510    25.8440     1.1820 ca         1 WFB      -0.193900
     22 C20         11.6620    26.5840     2.7980 ca         1 WFB      -0.104000
     23 C21         12.5450    26.8630     1.7400 ca         1 WFB      -0.088500
     24 N4           8.5860    19.5360    13.8300 nv         1 WFB      -1.088200
     25 N5           6.4070    20.0170    13.5600 n2         1 WFB      -0.823100
     26 N6          10.0800    22.9160     7.5330 na         1 WFB      -0.314600
     27 H6          12.2630    23.2400     3.1230 ha         1 WFB       0.118500
     28 H7           9.0680    26.4050     3.8340 ha         1 WFB       0.118000
     29 H8           7.5100    25.9190     5.7180 ha         1 WFB       0.132000
     30 H9          10.4060    21.1210     9.4990 ha         1 WFB       0.125000
     31 H10          9.8530    19.8690    11.5210 ha         1 WFB       0.131000
     32 H1          14.8490    27.8620     0.8220 hn         1 WFB       0.474500
     33 H2          15.6440    27.3920    -0.6240 hn         1 WFB       0.474500
     34 H4          14.1080    24.3920    -0.6120 hn         1 WFB       0.386400
     35 H5          13.8130    23.7160     1.2870 ha         1 WFB       0.121500
     36 H15          6.1170    22.0380    11.8510 ha         1 WFB       0.131000
     37 H16          6.6660    23.2880     9.8120 ha         1 WFB       0.125000
     38 H18         11.8690    23.4680     5.4140 ha         1 WFB       0.119000
     39 H19         11.0720    27.3960     3.2130 ha         1 WFB       0.118500
     40 H20         12.5900    27.8780     1.3510 ha         1 WFB       0.121500
     41 H11          8.3940    19.4100    14.8170 hn         1 WFB       0.467000
     42 H12          9.5170    19.8740    13.6170 hn         1 WFB       0.467000
     43 H13          6.3850    19.2680    14.2610 hn         1 WFB       0.372400
     44 H17         10.8340    22.2800     7.7520 hn         1 WFB       0.357000
     45 C1          14.2600    26.1300     0.0280 ce         1 WFB       0.662800
@<TRIPOS>BOND
     1     1     3 ar  
     2     1    14 ar  
     3     1    27 1   
     4     2    11 ar  
     5     2    16 1   
     6     2    17 ar  
     7     3     4 1   
     8     3    22 ar  
     9     4     6 ar  
    10     4    20 ar  
    11     5     9 1   
    12     5    10 ar  
    13     5    18 ar  
    14     6     7 ar  
    15     6    28 1   
    16     7     8 ar  
    17     7    29 1   
    18     8    15 1   
    19     8    19 ar  
    20     9    15 2   
    21     9    26 1   
    22    10    11 ar  
    23    10    30 1   
    24    11    31 1   
    25    12    32 1   
    26    12    33 1   
    27    12    45 1   
    28    13    34 1   
    29    13    45 2   
    30    14    21 ar  
    31    14    35 1   
    32    16    24 1   
    33    16    25 2   
    34    17    18 ar  
    35    17    36 1   
    36    18    37 1   
    37    19    20 ar  
    38    19    26 1   
    39    20    38 1   
    40    21    23 ar  
    41    21    45 1   
    42    22    23 ar  
    43    22    39 1   
    44    23    40 1   
    45    24    41 1   
    46    24    42 1   
    47    25    43 1   
    48    26    44 1   
@<TRIPOS>SUBSTRUCTURE
     1 WFB         1 TEMP              0 ****  ****    0 ROOT
