@<TRIPOS>MOLECULE
WFB
   45    48     1     0     0
SMALL
abcg2


@<TRIPOS>ATOM
      1 C4          12.2720    24.2190     2.7240 ca         1 WFB      -0.104000
      2 C14          7.9670    20.8900    11.8160 ca         1 WFB      -0.127900
      3 C5          11.5430    25.2290     3.3650 cp         1 WFB      -0.017000
      4 C6          10.6300    24.9210     4.4870 cp         1 WFB      -0.024000
      5 C11          8.6260    22.2750     9.4570 ca         1 WFB      -0.101900
      6 C7           9.4280    25.6530     4.6410 ca         1 WFB      -0.121000
      7 C8           8.5440    25.4150     5.6790 ca         1 WFB      -0.049000
      8 C9           8.8660    24.4160     6.6010 ca         1 WFB       0.078400
      9 C10          8.9460    23.0200     8.2420 cc         1 WFB       0.473400
     10 C12          9.5520    21.4230    10.0680 ca         1 WFB      -0.091000
     11 C13          9.2260    20.7440    11.2320 ca         1 WFB      -0.083000
     12 N1          14.8280    27.3350     0.1270 nv         1 WFB      -1.043200
     13 N2          14.3780    25.3410    -0.9260 n2         1 WFB      -0.845100
     14 C3          13.1290    24.5100     1.6740 ca         1 WFB      -0.088500
     15 N3           8.1960    23.9790     7.7250 nd         1 WFB      -0.571100
     16 C15          7.5890    20.1660    13.0650 ce         1 WFB       0.658800
     17 C16          7.0390    21.7350    11.2010 ca         1 WFB      -0.083000
     18 C17          7.3620    22.4200    10.0440 ca         1 WFB      -0.091000
     19 C18         10.0640    23.6850     6.4410 ca         1 WFB      -0.077200
     20 C19         10.9520    23.9150     5.4000 ca         1 WFB      -0.102000
     21 C2          13.2960    25.8240     1.2300 ca         1 WFB      -0.193900
     22 C20         11.7140    26.5430     2.9150 ca         1 WFB      -0.104000
     23 C21         12.5800    26.8370     1.8720 ca         1 WFB      -0.088500
     24 N4           8.6310    19.7980    13.8740 nv         1 WFB      -1.088200
     25 N5           6.3490    19.8970    13.2800 n2         1 WFB      -0.823100
     26 N6          10.0830    22.8080     7.5020 na         1 WFB      -0.314600
     27 H6          12.1570    23.1910     3.0410 ha         1 WFB       0.118500
     28 H7           9.1850    26.4120     3.9100 ha         1 WFB       0.118000
     29 H8           7.6270    25.9820     5.7720 ha         1 WFB       0.132000
     30 H9          10.5410    21.2880     9.6490 ha         1 WFB       0.125000
     31 H10          9.9600    20.0830    11.6740 ha         1 WFB       0.131000
     32 H1          14.9900    27.7670     1.0230 hn         1 WFB       0.474500
     33 H2          15.5350    27.5030    -0.5720 hn         1 WFB       0.474500
     34 H4          13.7770    24.5260    -0.8530 hn         1 WFB       0.386400
     35 H5          13.6810    23.7080     1.2000 ha         1 WFB       0.121500
     36 H15          6.0610    21.8530    11.6470 ha         1 WFB       0.131000
     37 H16          6.6380    23.0760     9.5810 ha         1 WFB       0.125000
     38 H18         11.8730    23.3550     5.3160 ha         1 WFB       0.119000
     39 H19         11.1780    27.3500     3.3960 ha         1 WFB       0.118500
     40 H20         12.6870    27.8640     1.5460 ha         1 WFB       0.121500
     41 H11          8.4070    19.4250    14.7840 hn         1 WFB       0.467000
     42 H12          9.4930    20.3160    13.8280 hn         1 WFB       0.467000
     43 H13          6.2300    19.4280    14.1780 hn         1 WFB       0.372400
     44 H17         10.7900    22.1120     7.6750 hn         1 WFB       0.357000
     45 C1          14.2020    26.1210     0.0830 ce         1 WFB       0.662800
@<TRIPOS>BOND
     1     1     3 ar  
     2     1    14 ar  
     3     1    27 1   
     4     2    11 ar  
     5     2    16 1   
     6     2    17 ar  
     7     3     4 1   
     8     3    22 ar  
     9     4     6 ar  
    10     4    20 ar  
    11     5     9 1   
    12     5    10 ar  
    13     5    18 ar  
    14     6     7 ar  
    15     6    28 1   
    16     7     8 ar  
    17     7    29 1   
    18     8    15 1   
    19     8    19 ar  
    20     9    15 2   
    21     9    26 1   
    22    10    11 ar  
    23    10    30 1   
    24    11    31 1   
    25    12    32 1   
    26    12    33 1   
    27    12    45 1   
    28    13    34 1   
    29    13    45 2   
    30    14    21 ar  
    31    14    35 1   
    32    16    24 1   
    33    16    25 2   
    34    17    18 ar  
    35    17    36 1   
    36    18    37 1   
    37    19    20 ar  
    38    19    26 1   
    39    20    38 1   
    40    21    23 ar  
    41    21    45 1   
    42    22    23 ar  
    43    22    39 1   
    44    23    40 1   
    45    24    41 1   
    46    24    42 1   
    47    25    43 1   
    48    26    44 1   
@<TRIPOS>SUBSTRUCTURE
     1 WFB         1 TEMP              0 ****  ****    0 ROOT
