@<TRIPOS>MOLECULE
WFC
   29    31     1     0     0
SMALL
No Charge or Current Charge


@<TRIPOS>ATOM
      1 C01          5.7620     7.6690    17.7990 c5         1 WFC      -0.149000
      2 C02          6.0400     8.2260    19.1870 ce         1 WFC       0.349900
      3 C04          6.4390     6.2580    17.7150 c5         1 WFC      -0.046400
      4 C05          5.4920     7.6760    20.4720 ca         1 WFC      -0.093900
      5 C07          7.8190     7.7450    16.4190 c5         1 WFC      -0.056400
      6 O08          7.1450     9.6210    17.8200 os         1 WFC      -0.310000
      7 C10          5.9460     8.1640    21.7190 ca         1 WFC      -0.079000
      8 C11          4.4830     6.6850    20.4570 ca         1 WFC      -0.079000
      9 C13          5.4170     7.6590    22.9210 ca         1 WFC      -0.114000
     10 C17          4.4260     6.6680    22.8900 ca         1 WFC       0.123000
     11 C03          6.6250     8.6170    16.9200 c5         1 WFC       0.136300
     12 N06          6.7920     9.2790    19.1400 n2         1 WFC      -0.285700
     13 C09          7.2300     6.3040    16.3750 c5         1 WFC      -0.195700
     14 C12          6.3310     6.0470    15.1230 c          1 WFC       0.709000
     15 C14          3.9570     6.1830    21.6610 ca         1 WFC      -0.114000
     16 O15          6.6290     5.1160    14.3900 o          1 WFC      -0.734000
     17 O16          5.3680     6.7600    14.8830 o          1 WFC      -0.734000
     18 Cl18         3.7650     6.0380    24.3930 cl         1 WFC      -0.235000
     19 H19          4.7010     7.6800    17.5280 hc         1 WFC       0.087700
     20 H22          7.1280     6.0810    18.5510 hc         1 WFC       0.037200
     21 H21          5.7080     5.4420    17.7360 hc         1 WFC       0.037200
     22 H24          8.1870     8.0730    15.4400 hc         1 WFC       0.041700
     23 H23          8.6680     7.7920    17.1120 hc         1 WFC       0.041700
     24 H26          6.7140     8.9340    21.7660 ha         1 WFC       0.136000
     25 H27          4.0970     6.3010    19.5160 ha         1 WFC       0.136000
     26 H28          5.7760     8.0370    23.8750 ha         1 WFC       0.124000
     27 H20          6.0580     9.0840    16.1020 h1         1 WFC       0.092700
     28 H25          8.0310     5.5550    16.3740 hc         1 WFC       0.049700
     29 H29          3.1840     5.4190    21.6390 ha         1 WFC       0.124000
@<TRIPOS>BOND
     1     1     2 1   
     2     1     3 1   
     3     1    11 1   
     4     1    19 1   
     5     2     4 1   
     6     2    12 2   
     7     3    13 1   
     8     3    20 1   
     9     3    21 1   
    10     4     7 ar  
    11     4     8 ar  
    12     5    11 1   
    13     5    13 1   
    14     5    22 1   
    15     5    23 1   
    16     6    11 1   
    17     6    12 1   
    18     7     9 ar  
    19     7    24 1   
    20     8    15 ar  
    21     8    25 1   
    22     9    10 ar  
    23     9    26 1   
    24    10    15 ar  
    25    10    18 1   
    26    11    27 1   
    27    13    14 1   
    28    13    28 1   
    29    14    16 1   
    30    14    17 1   
    31    15    29 1   
@<TRIPOS>SUBSTRUCTURE
     1 WFC         1 TEMP              0 ****  ****    0 ROOT
