@<TRIPOS>MOLECULE
WFC
   29    31     1     0     0
SMALL
abcg2


@<TRIPOS>ATOM
      1 C01          5.8760     7.6250    17.8830 c5         1 WFC      -0.149000
      2 C02          6.0740     8.2260    19.2460 ce         1 WFC       0.349900
      3 C04          6.5380     6.2380    17.6860 c5         1 WFC      -0.046400
      4 C05          5.5020     7.6950    20.4850 ca         1 WFC      -0.093900
      5 C07          7.7590     7.7850    16.3050 c5         1 WFC      -0.056400
      6 O08          7.2410     9.5740    17.9550 os         1 WFC      -0.310000
      7 C10          5.8730     8.2010    21.7390 ca         1 WFC      -0.079000
      8 C11          4.5590     6.6630    20.4340 ca         1 WFC      -0.079000
      9 C13          5.3200     7.6960    22.9030 ca         1 WFC      -0.114000
     10 C17          4.3830     6.6710    22.8200 ca         1 WFC       0.123000
     11 C03          6.6760     8.6050    17.0100 c5         1 WFC       0.136300
     12 N06          6.8360     9.2580    19.2490 n2         1 WFC      -0.285700
     13 C09          7.2360     6.3430    16.3140 c5         1 WFC      -0.195700
     14 C12          6.2340     6.0190    15.1820 c          1 WFC       0.709000
     15 C14          3.9960     6.1490    21.5960 ca         1 WFC      -0.114000
     16 O15          6.0230     4.7960    14.9690 o          1 WFC      -0.734000
     17 O16          5.6850     6.9780    14.5820 o          1 WFC      -0.734000
     18 CL18         3.6850     6.0290    24.2910 cl         1 WFC      -0.235000
     19 H19          4.8220     7.5930    17.6110 hc         1 WFC       0.087700
     20 H22          7.2840     6.0710    18.4670 hc         1 WFC       0.037200
     21 H21          5.8210     5.4200    17.7320 hc         1 WFC       0.037200
     22 H24          7.9760     8.1520    15.3030 hc         1 WFC       0.041700
     23 H23          8.6740     7.8440    16.9000 hc         1 WFC       0.041700
     24 H26          6.6050     8.9940    21.8000 ha         1 WFC       0.136000
     25 H27          4.2530     6.2540    19.4820 ha         1 WFC       0.136000
     26 H28          5.6130     8.0900    23.8670 ha         1 WFC       0.124000
     27 H20          6.0580     9.1710    16.3180 h1         1 WFC       0.092700
     28 H25          8.0500     5.6200    16.2480 hc         1 WFC       0.049700
     29 H29          3.2670     5.3520    21.5450 ha         1 WFC       0.124000
@<TRIPOS>BOND
     1     1     2 1   
     2     1     3 1   
     3     1    11 1   
     4     1    19 1   
     5     2     4 1   
     6     2    12 2   
     7     3    13 1   
     8     3    20 1   
     9     3    21 1   
    10     4     7 ar  
    11     4     8 ar  
    12     5    11 1   
    13     5    13 1   
    14     5    22 1   
    15     5    23 1   
    16     6    11 1   
    17     6    12 1   
    18     7     9 ar  
    19     7    24 1   
    20     8    15 ar  
    21     8    25 1   
    22     9    10 ar  
    23     9    26 1   
    24    10    15 ar  
    25    10    18 1   
    26    11    27 1   
    27    13    14 1   
    28    13    28 1   
    29    14    16 1   
    30    14    17 1   
    31    15    29 1   
@<TRIPOS>SUBSTRUCTURE
     1 WFC         1 TEMP              0 ****  ****    0 ROOT
