@<TRIPOS>MOLECULE
WFD
   70    74     1     0     0
SMALL
bcc


@<TRIPOS>ATOM
      1 C1         -38.2010     9.9590   -24.8480 c3         1 WFD       0.150100
      2 C2         -36.9880    11.8220   -23.9650 c6         1 WFD       0.148300
      3 C4         -35.1710    11.7320   -26.1470 c6         1 WFD       0.220800
      4 N6         -31.3910    14.5680   -24.3080 nb         1 WFD      -0.792000
      5 C8         -31.4780    13.7740   -25.3710 ca         1 WFD       0.749200
      6 C9         -29.1870    14.3230   -26.0850 cc         1 WFD       0.160300
      7 C13        -32.4860    14.6640   -23.5630 cp         1 WFD       0.798500
      8 C10        -28.7010    15.3260   -25.2690 cd         1 WFD      -0.316300
      9 C11        -27.3860    15.5480   -25.7320 cd         1 WFD       0.335600
     10 C14        -32.4120    15.5490   -22.3780 cp         1 WFD      -0.151500
     11 C16        -31.1140    16.8000   -20.7690 ca         1 WFD      -0.142500
     12 C21        -31.7910    17.2990   -17.6640 c6         1 WFD      -0.095400
     13 C22        -31.7520    18.1720   -16.4150 c6         1 WFD       0.095000
     14 C23        -31.3030    20.1440   -17.7600 c6         1 WFD       0.095000
     15 C24        -31.3120    19.3290   -19.0470 c6         1 WFD      -0.095400
     16 C27        -30.0470    18.7240   -13.7160 c2         1 WFD      -0.181000
     17 C26        -29.3310    18.7380   -14.8340 ce         1 WFD      -0.217200
     18 C3         -36.1090    13.0080   -24.3090 c6         1 WFD       0.220800
     19 N1         -37.3020    11.0500   -25.1490 n3         1 WFD      -0.710600
     20 C5         -36.0790    10.5760   -25.7600 c6         1 WFD       0.148300
     21 N2         -34.9050    12.5760   -25.0000 nh         1 WFD      -0.774300
     22 C6         -33.7280    13.2270   -24.8350 ca         1 WFD       0.755200
     23 N7         -33.6310    14.0460   -23.7740 nb         1 WFD      -0.817000
     24 C7         -32.6350    13.0700   -25.6950 ca         1 WFD      -0.518600
     25 N5         -28.1910    14.0190   -26.9410 na         1 WFD      -0.054600
     26 N4         -27.0890    14.7550   -26.7410 nc         1 WFD      -0.524800
     27 C19        -33.5710    15.9700   -21.7290 ca         1 WFD      -0.081500
     28 C18        -33.4970    16.8050   -20.6260 ca         1 WFD      -0.142500
     29 C15        -31.1820    15.9800   -21.8820 ca         1 WFD      -0.081500
     30 C17        -32.2710    17.2350   -20.1230 ca         1 WFD      -0.058300
     31 C20        -32.2180    18.1060   -18.8950 c6         1 WFD      -0.016400
     32 N8         -30.8990    19.3310   -16.6240 n          1 WFD      -0.470800
     33 O1         -28.8710    20.3310   -16.4710 o          1 WFD      -0.600100
     34 H1         -39.1250    10.3440   -24.4160 h1         1 WFD       0.033367
     35 H2         -38.4570     9.4210   -25.7620 h1         1 WFD       0.033367
     36 H3         -37.7760     9.2320   -24.1380 h1         1 WFD       0.033367
     37 H4         -37.9140    12.1950   -23.5220 h1         1 WFD       0.042200
     38 H5         -36.4860    11.2060   -23.1980 h1         1 WFD       0.042200
     39 H6         -34.2470    11.3100   -26.5350 h1         1 WFD       0.057950
     40 H7         -35.6340    12.3170   -26.9510 h1         1 WFD       0.057950
     41 H8         -25.4620    16.4760   -25.7510 hc         1 WFD       0.047033
     42 H9         -26.7780    17.5530   -25.2840 hc         1 WFD       0.047033
     43 H10        -26.1890    16.3520   -24.1480 hc         1 WFD       0.047033
     44 H11        -29.2080    15.8260   -24.4660 ha         1 WFD       0.184000
     45 H12        -30.1400    17.1010   -20.4020 ha         1 WFD       0.131000
     46 H13        -32.4860    16.4730   -17.4970 hc         1 WFD       0.054700
     47 H14        -30.8020    16.8620   -17.8310 hc         1 WFD       0.054700
     48 H15        -32.7610    18.5190   -16.1730 h1         1 WFD       0.056200
     49 H16        -31.3960    17.5930   -15.5690 h1         1 WFD       0.056200
     50 H17        -30.6420    21.0010   -17.8450 h1         1 WFD       0.056200
     51 H18        -32.3100    20.5250   -17.5580 h1         1 WFD       0.056200
     52 H19        -30.2880    19.0240   -19.2810 hc         1 WFD       0.054700
     53 H20        -31.6590    19.9580   -19.8690 hc         1 WFD       0.054700
     54 H21        -31.0200    19.1950   -13.6470 ha         1 WFD       0.118000
     55 H22        -29.6740    18.2470   -12.8200 ha         1 WFD       0.118000
     56 H24        -28.3450    18.2860   -14.8540 ha         1 WFD       0.147000
     57 H26        -35.8370    13.5380   -23.4020 h1         1 WFD       0.057950
     58 H27        -36.6690    13.7030   -24.9480 h1         1 WFD       0.057950
     59 H29        -36.3210    10.0110   -26.6630 h1         1 WFD       0.042200
     60 H30        -35.5260     9.8970   -25.0890 h1         1 WFD       0.042200
     61 H31        -32.6610    12.4590   -26.5840 ha         1 WFD       0.144000
     62 H32        -30.4860    13.0270   -26.9680 hn         1 WFD       0.440800
     63 H33        -28.2050    13.3250   -27.6720 hn         1 WFD       0.312700
     64 H34        -34.5370    15.6500   -22.0940 ha         1 WFD       0.150000
     65 H35        -34.4120    17.1290   -20.1440 ha         1 WFD       0.131000
     66 H36        -30.2690    15.6580   -22.3640 ha         1 WFD       0.150000
     67 H37        -33.2340    18.4740   -18.7080 hc         1 WFD       0.049700
     68 N3         -30.3860    13.6540   -26.1830 nu         1 WFD      -0.743300
     69 C12        -26.4010    16.5330   -25.2030 c3         1 WFD      -0.121400
     70 C25        -29.6880    19.5160   -16.0560 c          1 WFD       0.668300
@<TRIPOS>BOND
     1     1    19 1   
     2     1    34 1   
     3     1    35 1   
     4     1    36 1   
     5     2    18 1   
     6     2    19 1   
     7     2    37 1   
     8     2    38 1   
     9     3    20 1   
    10     3    21 1   
    11     3    39 1   
    12     3    40 1   
    13     4     5 ar  
    14     4     7 ar  
    15     5    24 ar  
    16     5    68 1   
    17     6     8 2   
    18     6    25 1   
    19     6    68 1   
    20     7    10 1   
    21     7    23 ar  
    22     8     9 1   
    23     8    44 1   
    24     9    26 2   
    25     9    69 1   
    26    10    27 ar  
    27    10    29 ar  
    28    11    29 ar  
    29    11    30 ar  
    30    11    45 1   
    31    12    13 1   
    32    12    31 1   
    33    12    46 1   
    34    12    47 1   
    35    13    32 1   
    36    13    48 1   
    37    13    49 1   
    38    14    15 1   
    39    14    32 1   
    40    14    50 1   
    41    14    51 1   
    42    15    31 1   
    43    15    52 1   
    44    15    53 1   
    45    16    17 2   
    46    16    54 1   
    47    16    55 1   
    48    17    56 1   
    49    17    70 1   
    50    18    21 1   
    51    18    57 1   
    52    18    58 1   
    53    19    20 1   
    54    20    59 1   
    55    20    60 1   
    56    21    22 1   
    57    22    23 ar  
    58    22    24 ar  
    59    24    61 1   
    60    25    26 1   
    61    25    63 1   
    62    27    28 ar  
    63    27    64 1   
    64    28    30 ar  
    65    28    65 1   
    66    29    66 1   
    67    30    31 1   
    68    31    67 1   
    69    32    70 1   
    70    33    70 2   
    71    41    69 1   
    72    42    69 1   
    73    43    69 1   
    74    62    68 1   
@<TRIPOS>SUBSTRUCTURE
     1 WFD         1 TEMP              0 ****  ****    0 ROOT
