@<TRIPOS>MOLECULE
WFD
   70    74     1     0     0
SMALL
No Charge or Current Charge


@<TRIPOS>ATOM
      1 C1         -38.6960    10.2350   -25.5570 c3         1 WFD       0.150100
      2 C2         -37.4030    12.0700   -24.5180 c6         1 WFD       0.148300
      3 C4         -35.0610    11.4380   -26.1540 c6         1 WFD       0.220800
      4 N6         -31.3800    14.4440   -24.2000 nb         1 WFD      -0.266000
      5 C8         -31.4490    13.7050   -25.3150 ca         1 WFD       0.420900
      6 C9         -29.0660    14.1720   -26.0280 cc         1 WFD       0.248000
      7 C13        -32.4760    14.5000   -23.4200 cp         1 WFD       0.272500
      8 C10        -28.6350    15.3220   -25.4480 cd         1 WFD      -0.233000
      9 C11        -27.2530    15.4320   -25.7030 cd         1 WFD       0.270300
     10 C14        -32.4070    15.3340   -22.1640 cp         1 WFD      -0.151500
     11 C16        -31.1530    16.7910   -20.6180 ca         1 WFD      -0.124500
     12 C21        -31.1870    17.2160   -17.4840 c6         1 WFD      -0.095400
     13 C22        -31.1270    18.0780   -16.1970 c6         1 WFD       0.095000
     14 C23        -31.8740    20.0740   -17.4880 c6         1 WFD       0.095000
     15 C24        -31.9070    19.2530   -18.7960 c6         1 WFD      -0.095400
     16 C27        -29.3950    19.1840   -13.8130 c2         1 WFD      -0.281000
     17 C26        -28.9700    19.8900   -14.8940 ce         1 WFD      -0.267200
     18 C3         -36.2360    13.0960   -24.6830 c6         1 WFD       0.220800
     19 N1         -37.5550    11.1660   -25.6960 n3         1 WFD      -0.710600
     20 C5         -36.2640    10.4600   -25.9510 c6         1 WFD       0.148300
     21 N2         -34.9280    12.4500   -25.0530 nh         1 WFD      -0.774300
     22 C6         -33.7020    13.1120   -24.8050 ca         1 WFD       0.426900
     23 N7         -33.6310    13.8600   -23.6890 nb         1 WFD      -0.291000
     24 C7         -32.6010    13.0070   -25.6650 ca         1 WFD      -0.370000
     25 N5         -27.9260    13.6590   -26.6370 na         1 WFD      -0.054200
     26 N4         -26.7860    14.4310   -26.4280 nc         1 WFD      -0.524800
     27 C19        -33.5300    15.4760   -21.3030 ca         1 WFD      -0.063500
     28 C18        -33.4650    16.2540   -20.1340 ca         1 WFD      -0.124500
     29 C15        -31.2160    16.0140   -21.7870 ca         1 WFD      -0.063500
     30 C17        -32.2770    16.9190   -19.7810 ca         1 WFD      -0.058300
     31 C20        -32.2200    17.7650   -18.5000 c6         1 WFD      -0.016400
     32 N8         -30.9040    19.5200   -16.5040 n          1 WFD      -0.403800
     33 O1         -29.3210    21.1360   -16.8540 o          1 WFD      -0.600100
     34 H1         -39.6330    10.7890   -25.4140 h1         1 WFD       0.033367
     35 H2         -38.8030     9.6170   -26.4580 h1         1 WFD       0.033367
     36 H3         -38.5560     9.5670   -24.6960 h1         1 WFD       0.033367
     37 H4         -38.3340    12.6290   -24.3450 h1         1 WFD       0.042200
     38 H5         -37.2150    11.4770   -23.6100 h1         1 WFD       0.042200
     39 H6         -34.1510    10.8250   -26.2260 h1         1 WFD       0.057950
     40 H7         -35.1860    11.9540   -27.1180 h1         1 WFD       0.057950
     41 H8         -25.9320    17.0820   -26.1100 hc         1 WFD       0.047033
     42 H9         -26.8870    17.2630   -24.6280 hc         1 WFD       0.047033
     43 H10        -25.5100    16.1490   -24.6610 hc         1 WFD       0.047033
     44 H11        -29.2400    16.0310   -24.9000 ha         1 WFD       0.166000
     45 H12        -30.2230    17.2930   -20.3660 ha         1 WFD       0.113000
     46 H13        -31.4350    16.1790   -17.2200 hc         1 WFD       0.054700
     47 H14        -30.1880    17.1900   -17.9400 hc         1 WFD       0.054700
     48 H15        -32.0630    17.9690   -15.6310 h1         1 WFD       0.056200
     49 H16        -30.3130    17.6730   -15.5850 h1         1 WFD       0.056200
     50 H17        -31.6390    21.1220   -17.7190 h1         1 WFD       0.056200
     51 H18        -32.8760    20.0680   -17.0330 h1         1 WFD       0.056200
     52 H19        -30.9390    19.3490   -19.3070 hc         1 WFD       0.054700
     53 H20        -32.6640    19.6680   -19.4750 hc         1 WFD       0.054700
     54 H21        -30.4010    18.7710   -13.7250 ha         1 WFD       0.168000
     55 H22        -28.7480    19.0360   -12.9460 ha         1 WFD       0.168000
     56 H24        -27.9780    20.3400   -14.8690 ha         1 WFD       0.197000
     57 H26        -36.1540    13.6550   -23.7400 h1         1 WFD       0.057950
     58 H27        -36.5180    13.8210   -25.4610 h1         1 WFD       0.057950
     59 H29        -36.3480     9.8230   -26.8440 h1         1 WFD       0.042200
     60 H30        -36.0280     9.7950   -25.1070 h1         1 WFD       0.042200
     61 H31        -32.6340    12.4240   -26.5760 ha         1 WFD       0.126000
     62 H32        -30.4280    12.9400   -26.8730 hn         1 WFD       0.496000
     63 H33        -27.8890    12.8020   -27.1800 hn         1 WFD       0.363000
     64 H34        -34.4700    14.9810   -21.5360 ha         1 WFD       0.132000
     65 H35        -34.3470    16.3370   -19.5030 ha         1 WFD       0.113000
     66 H36        -30.3210    15.9430   -22.4020 ha         1 WFD       0.132000
     67 H37        -33.2070    17.7270   -18.0170 hc         1 WFD       0.049700
     68 N3         -30.3290    13.6310   -26.1300 nu         1 WFD      -0.936900
     69 C12        -26.3470    16.5410   -25.2510 c3         1 WFD      -0.121400
     70 C25        -29.7260    20.2220   -16.1500 c          1 WFD       0.601300
@<TRIPOS>BOND
     1     1    19 1   
     2     1    34 1   
     3     1    35 1   
     4     1    36 1   
     5     2    18 1   
     6     2    19 1   
     7     2    37 1   
     8     2    38 1   
     9     3    20 1   
    10     3    21 1   
    11     3    39 1   
    12     3    40 1   
    13     4     5 ar  
    14     4     7 ar  
    15     5    24 ar  
    16     5    68 1   
    17     6     8 2   
    18     6    25 1   
    19     6    68 1   
    20     7    10 1   
    21     7    23 ar  
    22     8     9 1   
    23     8    44 1   
    24     9    26 2   
    25     9    69 1   
    26    10    27 ar  
    27    10    29 ar  
    28    11    29 ar  
    29    11    30 ar  
    30    11    45 1   
    31    12    13 1   
    32    12    31 1   
    33    12    46 1   
    34    12    47 1   
    35    13    32 1   
    36    13    48 1   
    37    13    49 1   
    38    14    15 1   
    39    14    32 1   
    40    14    50 1   
    41    14    51 1   
    42    15    31 1   
    43    15    52 1   
    44    15    53 1   
    45    16    17 2   
    46    16    54 1   
    47    16    55 1   
    48    17    56 1   
    49    17    70 1   
    50    18    21 1   
    51    18    57 1   
    52    18    58 1   
    53    19    20 1   
    54    20    59 1   
    55    20    60 1   
    56    21    22 1   
    57    22    23 ar  
    58    22    24 ar  
    59    24    61 1   
    60    25    26 1   
    61    25    63 1   
    62    27    28 ar  
    63    27    64 1   
    64    28    30 ar  
    65    28    65 1   
    66    29    66 1   
    67    30    31 1   
    68    31    67 1   
    69    32    70 1   
    70    33    70 2   
    71    41    69 1   
    72    42    69 1   
    73    43    69 1   
    74    62    68 1   
@<TRIPOS>SUBSTRUCTURE
     1 WFD         1 TEMP              0 ****  ****    0 ROOT
