@<TRIPOS>MOLECULE
WFE
   51    54     1     0     0
SMALL
abcg2


@<TRIPOS>ATOM
      1 C1           2.6270     2.7730    -1.0440 c3         1 WFE      -0.091100
      2 C2           3.3980     1.8860    -2.0200 c3         1 WFE      -0.004200
      3 C3           4.5410     1.1710    -1.3710 cc         1 WFE      -0.100400
      4 C4           5.8420     1.4550    -1.6650 cd         1 WFE      -0.182100
      5 N5           6.6840     0.7750    -0.8270 na         1 WFE      -0.314400
      6 C6           5.9500     0.0590     0.0480 ca         1 WFE       0.140500
      7 N7           6.4570    -0.6410     1.0650 nb         1 WFE      -0.232000
      8 C8           5.5250    -1.1690     1.8260 ca         1 WFE       0.179900
      9 N9           4.2120    -1.1360     1.6380 nb         1 WFE      -0.304000
     10 C10          3.7070    -0.5000     0.5730 ca         1 WFE       0.432900
     11 N11          2.3730    -0.6280     0.4020 nh         1 WFE      -0.784300
     12 C12          1.6880    -0.5560    -0.8880 c5         1 WFE       0.226800
     13 C13          0.5030    -1.4930    -0.7130 c5         1 WFE      -0.138400
     14 C14          0.1770    -1.3890     0.7840 c5         1 WFE       0.140200
     15 N15         -0.5900    -2.4790     1.3500 n8         1 WFE      -0.970200
     16 C16         -0.5250    -0.0650     1.1200 c3         1 WFE       0.107000
     17 N17         -1.8340     0.0630     0.5220 ns         1 WFE      -0.512900
     18 C18         -2.9880    -0.0250     1.2120 c          1 WFE       0.618700
     19 O19         -3.0550    -0.2450     2.4090 o          1 WFE      -0.557100
     20 C20         -4.2160     0.1450     0.3750 ca         1 WFE      -0.219600
     21 C21         -4.3500    -0.4930    -0.8560 ca         1 WFE      -0.040000
     22 C22         -5.5080    -0.3870    -1.6100 ca         1 WFE      -0.181000
     23 C23         -6.5390     0.3860    -1.1130 ca         1 WFE       0.221000
     24 F24         -7.6620     0.5090    -1.8250 f          1 WFE      -0.166000
     25 C25         -6.4560     1.0450     0.0990 ca         1 WFE      -0.212000
     26 C26         -5.2900     0.9020     0.8250 ca         1 WFE       0.254000
     27 F27         -5.1970     1.5540     1.9840 f          1 WFE      -0.148000
     28 C28          1.5840    -1.3600     1.3840 c5         1 WFE       0.230800
     29 C29          4.5850     0.2340    -0.2690 ca         1 WFE      -0.231800
     30 H1           1.7750     3.2450    -1.5350 hc         1 WFE       0.036367
     31 H1A          2.2500     2.2080    -0.1900 hc         1 WFE       0.036367
     32 H1B          3.2690     3.5620    -0.6510 hc         1 WFE       0.036367
     33 H2           2.7190     1.1940    -2.5200 hc         1 WFE       0.038700
     34 H2A          3.8070     2.5120    -2.8170 hc         1 WFE       0.038700
     35 H4           6.2340     2.1260    -2.4140 h4         1 WFE       0.215000
     36 H8           5.8620    -1.7100     2.7050 h5         1 WFE       0.045100
     37 H12          1.3410     0.4570    -1.0980 h1         1 WFE       0.054700
     38 H12A         2.3470    -0.8620    -1.7020 h1         1 WFE       0.054700
     39 H13         -0.3310    -1.2410    -1.3690 hc         1 WFE       0.052700
     40 H13A         0.7950    -2.5220    -0.9350 hc         1 WFE       0.052700
     41 HN15        -1.5120    -2.5030     0.9320 hn         1 WFE       0.400000
     42 HN1A        -0.1590    -3.3620     1.0990 hn         1 WFE       0.400000
     43 H16         -0.6270     0.0150     2.2010 h1         1 WFE       0.072700
     44 H16A         0.0830     0.7810     0.7910 h1         1 WFE       0.072700
     45 HN17        -1.8790     0.4020    -0.4250 hn         1 WFE       0.308500
     46 H21         -3.5420    -1.1070    -1.2320 ha         1 WFE       0.120000
     47 H22         -5.6030    -0.8960    -2.5580 ha         1 WFE       0.140000
     48 H25         -7.2690     1.6560     0.4670 ha         1 WFE       0.156000
     49 H28          1.9580    -2.3810     1.5180 h1         1 WFE       0.071700
     50 H28A         1.6140    -0.8750     2.3610 h1         1 WFE       0.071700
     51 HN5          7.6890     0.8430    -0.8200 hn         1 WFE       0.364000
@<TRIPOS>BOND
     1     1     2 1   
     2     1    30 1   
     3     1    31 1   
     4     1    32 1   
     5     2     3 1   
     6     2    33 1   
     7     2    34 1   
     8     3     4 2   
     9     3    29 1   
    10     4     5 1   
    11     4    35 1   
    12     5     6 1   
    13     5    51 1   
    14     6     7 ar  
    15     6    29 ar  
    16     7     8 ar  
    17     8     9 ar  
    18     8    36 1   
    19     9    10 ar  
    20    10    11 1   
    21    10    29 ar  
    22    11    12 1   
    23    11    28 1   
    24    12    13 1   
    25    12    37 1   
    26    12    38 1   
    27    13    14 1   
    28    13    39 1   
    29    13    40 1   
    30    14    15 1   
    31    14    16 1   
    32    14    28 1   
    33    15    41 1   
    34    15    42 1   
    35    16    17 1   
    36    16    43 1   
    37    16    44 1   
    38    17    18 1   
    39    17    45 1   
    40    18    19 2   
    41    18    20 1   
    42    20    21 ar  
    43    20    26 ar  
    44    21    22 ar  
    45    21    46 1   
    46    22    23 ar  
    47    22    47 1   
    48    23    24 1   
    49    23    25 ar  
    50    25    26 ar  
    51    25    48 1   
    52    26    27 1   
    53    28    49 1   
    54    28    50 1   
@<TRIPOS>SUBSTRUCTURE
     1 WFE         1 TEMP              0 ****  ****    0 ROOT
