@<TRIPOS>MOLECULE
WFE
   51    54     1     0     0
SMALL
No Charge or Current Charge


@<TRIPOS>ATOM
      1 C1           2.6060     2.7790     0.0840 c3         1 WFE      -0.091100
      2 C2           3.0120     2.0720    -1.2220 c3         1 WFE      -0.004200
      3 C3           4.3410     1.3680    -1.1200 cc         1 WFE      -0.100400
      4 C4           5.5510     1.8530    -1.5950 cd         1 WFE      -0.182100
      5 N5           6.5900     0.9610    -1.2450 na         1 WFE      -0.314400
      6 C6           6.0150    -0.0820    -0.5450 ca         1 WFE       0.140500
      7 N7           6.6020    -1.1610     0.0030 nb         1 WFE      -0.232000
      8 C8           5.7780    -2.0300     0.6300 ca         1 WFE       0.179900
      9 N9           4.4360    -1.9280     0.7490 nb         1 WFE      -0.304000
     10 C10          3.8590    -0.8440     0.1920 ca         1 WFE       0.432900
     11 N11          2.4610    -0.7810     0.2860 nh         1 WFE      -0.784300
     12 C12          1.5990    -1.3760    -0.7670 c5         1 WFE       0.226800
     13 C13          0.4210    -1.9580     0.0610 c5         1 WFE      -0.138400
     14 C14          0.2600    -0.9200     1.2090 c5         1 WFE       0.140200
     15 N15         -0.5770    -1.4840     2.2900 n8         1 WFE      -0.970200
     16 C16         -0.3560     0.4480     0.7500 c3         1 WFE       0.107000
     17 N17         -1.6910     0.3670     0.1280 ns         1 WFE      -0.512900
     18 C18         -2.8850     0.3030     0.8130 c          1 WFE       0.618700
     19 O19         -2.9000     0.3040     2.0340 o          1 WFE      -0.557100
     20 C20         -4.1350     0.1960    -0.0350 ca         1 WFE      -0.219600
     21 C21         -4.0550    -0.0830    -1.4240 ca         1 WFE      -0.040000
     22 C22         -5.2210    -0.1850    -2.2010 ca         1 WFE      -0.181000
     23 C23         -6.4770    -0.0120    -1.6100 ca         1 WFE       0.221000
     24 F24         -7.5950    -0.1100    -2.3610 f          1 WFE      -0.166000
     25 C25         -6.5780     0.2620    -0.2430 ca         1 WFE      -0.212000
     26 C26         -5.4200     0.3640     0.5400 ca         1 WFE       0.254000
     27 F27         -5.5750     0.6460     1.8530 f          1 WFE      -0.148000
     28 C28          1.7720    -0.7750     1.6080 c5         1 WFE       0.230800
     29 C29          4.6560     0.1190    -0.4640 ca         1 WFE      -0.231800
     30 H1           1.6260     3.2570    -0.0270 hc         1 WFE       0.036367
     31 H1A          2.5510     2.0670     0.9140 hc         1 WFE       0.036367
     32 H1B          3.3390     3.5520     0.3450 hc         1 WFE       0.036367
     33 H2           2.2290     1.3660    -1.5140 hc         1 WFE       0.038700
     34 H2A          3.0540     2.8190    -2.0240 hc         1 WFE       0.038700
     35 H4           5.7460     2.7770    -2.1350 h4         1 WFE       0.215000
     36 H8           6.2440    -2.9060     1.0790 h5         1 WFE       0.045100
     37 H12          1.2520    -0.6190    -1.4820 h1         1 WFE       0.054700
     38 H12A         2.1160    -2.1630    -1.3350 h1         1 WFE       0.054700
     39 H13         -0.4830    -2.0800    -0.5440 hc         1 WFE       0.052700
     40 H13A         0.6830    -2.9490     0.4500 hc         1 WFE       0.052700
     41 HN15        -1.4140    -0.8900     2.3850 hn         1 WFE       0.400000
     42 HN1A        -0.9610    -2.3810     1.9760 hn         1 WFE       0.400000
     43 H16         -0.4060     1.1240     1.6150 h1         1 WFE       0.072700
     44 H16A         0.3180     0.9220     0.0260 h1         1 WFE       0.072700
     45 HN17        -1.7470     0.3810    -0.8810 hn         1 WFE       0.308500
     46 H21         -3.0990    -0.2390    -1.9190 ha         1 WFE       0.120000
     47 H22         -5.1520    -0.4020    -3.2640 ha         1 WFE       0.140000
     48 H25         -7.5540     0.3980     0.2110 ha         1 WFE       0.156000
     49 H28          2.0950    -1.6260     2.2250 h1         1 WFE       0.071700
     50 H28A         1.9570     0.1450     2.1780 h1         1 WFE       0.071700
     51 HN5          7.5790     1.0630    -1.4530 hn         1 WFE       0.364000
@<TRIPOS>BOND
     1     1     2 1   
     2     1    30 1   
     3     1    31 1   
     4     1    32 1   
     5     2     3 1   
     6     2    33 1   
     7     2    34 1   
     8     3     4 2   
     9     3    29 1   
    10     4     5 1   
    11     4    35 1   
    12     5     6 1   
    13     5    51 1   
    14     6     7 ar  
    15     6    29 ar  
    16     7     8 ar  
    17     8     9 ar  
    18     8    36 1   
    19     9    10 ar  
    20    10    11 1   
    21    10    29 ar  
    22    11    12 1   
    23    11    28 1   
    24    12    13 1   
    25    12    37 1   
    26    12    38 1   
    27    13    14 1   
    28    13    39 1   
    29    13    40 1   
    30    14    15 1   
    31    14    16 1   
    32    14    28 1   
    33    15    41 1   
    34    15    42 1   
    35    16    17 1   
    36    16    43 1   
    37    16    44 1   
    38    17    18 1   
    39    17    45 1   
    40    18    19 2   
    41    18    20 1   
    42    20    21 ar  
    43    20    26 ar  
    44    21    22 ar  
    45    21    46 1   
    46    22    23 ar  
    47    22    47 1   
    48    23    24 1   
    49    23    25 ar  
    50    25    26 ar  
    51    25    48 1   
    52    26    27 1   
    53    28    49 1   
    54    28    50 1   
@<TRIPOS>SUBSTRUCTURE
     1 WFE         1 TEMP              0 ****  ****    0 ROOT
