@<TRIPOS>MOLECULE
WFF
   36    39     1     0     0
SMALL
bcc


@<TRIPOS>ATOM
      1 C1          -0.5920     0.2400     1.2330 ca         1 WFF      -0.093000
      2 C2           3.4920     0.6110     1.1060 ca         1 WFF      -0.047000
      3 C3          -1.7920     0.8890     1.4650 ca         1 WFF      -0.124000
      4 C4           3.9900     1.9010     1.1840 ca         1 WFF      -0.190000
      5 C5          -1.7160    -1.3420    -0.1900 ca         1 WFF      -0.124000
      6 C6           2.4770     2.5690    -0.5850 ca         1 WFF      -0.224000
      7 C7          -0.5370    -0.8740     0.3950 ca         1 WFF      -0.051800
      8 C8           2.4840     0.2660     0.2060 ca         1 WFF      -0.098800
      9 C9          -2.9170    -0.6960     0.0410 ca         1 WFF       0.009600
     10 C10         -2.9540     0.4260     0.8690 ca         1 WFF       0.102100
     11 C11          3.4680     2.8570     0.3340 ca         1 WFF       0.175900
     12 C12          2.0110     1.2710    -0.6290 ca         1 WFF       0.182900
     13 C13          1.9750    -1.1020     0.1160 ce         1 WFF      -0.144400
     14 C14          0.7170    -1.5730     0.1540 cf         1 WFF      -0.023400
     15 C15          2.8770    -2.2440    -0.0980 c          1 WFF       0.731800
     16 C16         -5.2440    -0.4110    -0.5180 c          1 WFF       0.685500
     17 C17          0.7660    -3.0520    -0.0600 c5         1 WFF       0.152600
     18 C18         -5.0840     0.9740     0.0750 c6         1 WFF       0.049400
     19 N19         -4.1170    -1.1570    -0.4930 ns         1 WFF      -0.469100
     20 O20          4.0760    -2.2590    -0.1860 o          1 WFF      -0.550500
     21 O21         -6.2870    -0.7840    -1.0140 o          1 WFF      -0.596500
     22 O22         -4.1320     1.0300     1.1240 os         1 WFF      -0.299900
     23 O23          2.1420    -3.3600    -0.2030 os         1 WFF      -0.389900
     24 F24          3.9350     4.1090     0.3930 f          1 WFF      -0.132900
     25 F25          1.0630     0.9730    -1.5220 f          1 WFF      -0.130900
     26 H1           0.3010     0.5990     1.7260 ha         1 WFF       0.148000
     27 H3          -1.8350     1.7470     2.1230 ha         1 WFF       0.157000
     28 H4           4.7660     2.1550     1.8930 ha         1 WFF       0.160000
     29 H5          -1.7040    -2.2060    -0.8440 ha         1 WFF       0.138000
     30 H6           2.0840     3.3270    -1.2500 ha         1 WFF       0.171000
     31 H7           0.3540    -3.5980     0.7920 h1         1 WFF       0.082200
     32 H8           0.2310    -3.3660    -0.9600 h1         1 WFF       0.082200
     33 H9          -4.8090     1.6620    -0.7350 h1         1 WFF       0.088700
     34 H10         -6.0350     1.3000     0.4890 h1         1 WFF       0.088700
     35 H11         -4.1360    -2.0630    -0.9420 hn         1 WFF       0.333500
     36 H2           3.8860    -0.1420     1.7750 ha         1 WFF       0.151000
@<TRIPOS>BOND
     1     1     3 ar  
     2     1     7 ar  
     3     1    26 1   
     4     2     4 ar  
     5     2     8 ar  
     6     2    36 1   
     7     3    10 ar  
     8     3    27 1   
     9     4    11 ar  
    10     4    28 1   
    11     5     7 ar  
    12     5     9 ar  
    13     5    29 1   
    14     6    11 ar  
    15     6    12 ar  
    16     6    30 1   
    17     7    14 1   
    18     8    12 ar  
    19     8    13 1   
    20     9    10 ar  
    21     9    19 1   
    22    10    22 1   
    23    11    24 1   
    24    12    25 1   
    25    13    14 2   
    26    13    15 1   
    27    14    17 1   
    28    15    20 2   
    29    15    23 1   
    30    16    18 1   
    31    16    19 1   
    32    16    21 2   
    33    17    23 1   
    34    17    31 1   
    35    17    32 1   
    36    18    22 1   
    37    18    33 1   
    38    18    34 1   
    39    19    35 1   
@<TRIPOS>SUBSTRUCTURE
     1 WFF         1 TEMP              0 ****  ****    0 ROOT
