@<TRIPOS>MOLECULE
WFF
   36    39     1     0     0
SMALL
No Charge or Current Charge


@<TRIPOS>ATOM
      1 C1          -0.5780     0.3900     1.0260 ca         1 WFF      -0.075000
      2 C2           3.4510     0.5490     1.2510 ca         1 WFF      -0.029000
      3 C3          -1.7890     1.0680     1.2530 ca         1 WFF      -0.106000
      4 C4           3.9600     1.8510     1.3980 ca         1 WFF      -0.172000
      5 C5          -1.7670    -1.3430    -0.2010 ca         1 WFF      -0.106000
      6 C6           2.7080     2.5730    -0.5580 ca         1 WFF      -0.206000
      7 C7          -0.5510    -0.8150     0.2880 ca         1 WFF      -0.051800
      8 C8           2.5620     0.2530     0.1980 ca         1 WFF      -0.098800
      9 C9          -2.9750    -0.6610     0.0200 ca         1 WFF      -0.083000
     10 C10         -2.9860     0.5520     0.7390 ca         1 WFF       0.102100
     11 C11          3.5870     2.8570     0.4950 ca         1 WFF       0.211000
     12 C12          2.2000     1.2750    -0.7060 ca         1 WFF       0.218000
     13 C13          2.0150    -1.1280     0.0510 ce         1 WFF      -0.144400
     14 C14          0.7220    -1.5330     0.0520 cf         1 WFF      -0.023400
     15 C15          2.9440    -2.2640    -0.1680 c          1 WFF       0.656300
     16 C16         -5.4240    -0.5600    -0.2430 c          1 WFF       0.543000
     17 C17          0.8010    -3.0570    -0.1920 c5         1 WFF       0.175800
     18 C18         -5.2780     0.9460     0.0490 c6         1 WFF       0.072600
     19 N19         -4.2110    -1.1890    -0.4140 ns         1 WFF      -0.143000
     20 O20          4.1650    -2.2160    -0.2310 o          1 WFF      -0.475000
     21 O21         -6.4970    -1.1550    -0.2540 o          1 WFF      -0.521000
     22 O22         -4.1790     1.2160     0.9650 os         1 WFF      -0.323100
     23 O23          2.2060    -3.4060    -0.2840 os         1 WFF      -0.413100
     24 F24          4.0790     4.1060     0.6390 f          1 WFF      -0.168000
     25 F25          1.3600     1.0100    -1.7320 f          1 WFF      -0.166000
     26 H1           0.3350     0.8000     1.4460 ha         1 WFF       0.130000
     27 H3          -1.7990     1.9930     1.8250 ha         1 WFF       0.139000
     28 H4           4.6430     2.0820     2.2120 ha         1 WFF       0.142000
     29 H5          -1.7790    -2.2780    -0.7570 ha         1 WFF       0.120000
     30 H6           2.4240     3.3530    -1.2580 ha         1 WFF       0.153000
     31 H7           0.3390    -3.6230     0.6290 h1         1 WFF       0.082200
     32 H8           0.3040    -3.3410    -1.1290 h1         1 WFF       0.082200
     33 H9          -5.0810     1.4460    -0.9090 h1         1 WFF       0.088700
     34 H10         -6.2200     1.3220     0.4700 h1         1 WFF       0.088700
     35 H11         -4.2300    -2.1700    -0.6650 hn         1 WFF       0.167000
     36 H2           3.7400    -0.2270     1.9580 ha         1 WFF       0.133000
@<TRIPOS>BOND
     1     1     3 ar  
     2     1     7 ar  
     3     1    26 1   
     4     2     4 ar  
     5     2     8 ar  
     6     2    36 1   
     7     3    10 ar  
     8     3    27 1   
     9     4    11 ar  
    10     4    28 1   
    11     5     7 ar  
    12     5     9 ar  
    13     5    29 1   
    14     6    11 ar  
    15     6    12 ar  
    16     6    30 1   
    17     7    14 1   
    18     8    12 ar  
    19     8    13 1   
    20     9    10 ar  
    21     9    19 1   
    22    10    22 1   
    23    11    24 1   
    24    12    25 1   
    25    13    14 2   
    26    13    15 1   
    27    14    17 1   
    28    15    20 2   
    29    15    23 1   
    30    16    18 1   
    31    16    19 1   
    32    16    21 2   
    33    17    23 1   
    34    17    31 1   
    35    17    32 1   
    36    18    22 1   
    37    18    33 1   
    38    18    34 1   
    39    19    35 1   
@<TRIPOS>SUBSTRUCTURE
     1 WFF         1 TEMP              0 ****  ****    0 ROOT
