@<TRIPOS>MOLECULE
WFG
   39    42     1     0     0
SMALL
No Charge or Current Charge


@<TRIPOS>ATOM
      1 C1          -1.0770     2.2560     1.2970 ca         1 WFG      -0.091000
      2 C2           1.5190    -1.4790     0.9270 ca         1 WFG      -0.058000
      3 C3           2.6780    -1.3780    -1.2130 ca         1 WFG      -0.058000
      4 C4          -2.4550     2.0460     1.4890 ca         1 WFG      -0.107000
      5 C5           1.4780    -2.8810     0.8380 ca         1 WFG      -0.158000
      6 C6           2.6370    -2.7810    -1.2990 ca         1 WFG      -0.158000
      7 C7          -0.9750     0.3090    -0.1600 ca         1 WFG      -0.100000
      8 C8           2.1190    -0.7200    -0.0980 ca         1 WFG      -0.061800
      9 C9          -0.3240     1.3880     0.4750 ca         1 WFG      -0.050800
     10 C10         -2.3520     0.1040     0.0270 ca         1 WFG      -0.080000
     11 C11         -3.0950     0.9770     0.8490 ca         1 WFG       0.096100
     12 C12          2.0370    -3.5280    -0.2740 ca         1 WFG       0.183000
     13 C13          2.1460     0.7680    -0.0010 ce         1 WFG      -0.132400
     14 C14          1.1250     1.6130     0.2810 cf         1 WFG      -0.042400
     15 C15          3.4290     1.4980    -0.1610 c          1 WFG       0.653300
     16 C16         -4.3670    -1.2460    -0.4130 c          1 WFG       0.541000
     17 C17         -5.1580     0.0040     0.0230 c6         1 WFG       0.072600
     18 C18          1.7760     3.0180     0.2760 c5         1 WFG       0.193500
     19 C19          1.2030     3.9070    -0.8460 c3         1 WFG      -0.097100
     20 N20         -3.0180    -1.0010    -0.5470 ns         1 WFG      -0.142000
     21 O21          4.5330     1.0170    -0.3750 o          1 WFG      -0.477000
     22 O22         -4.8660    -2.3560    -0.5590 o          1 WFG      -0.523000
     23 O23         -4.4490     0.7670     1.0400 os         1 WFG      -0.324100
     24 O24          3.1910     2.8280     0.0360 os         1 WFG      -0.417100
     25 F25          1.9970    -4.8750    -0.3590 f          1 WFG      -0.174000
     26 H1          -0.5960     3.0890     1.8030 ha         1 WFG       0.122000
     27 H3           3.1370    -0.8030    -2.0140 ha         1 WFG       0.126500
     28 H4          -3.0250     2.7150     2.1300 ha         1 WFG       0.137000
     29 H5           1.0150    -3.4660     1.6290 ha         1 WFG       0.136000
     30 H6           3.0660    -3.2890    -2.1590 ha         1 WFG       0.136000
     31 H7          -0.4190    -0.3640    -0.8070 ha         1 WFG       0.133000
     32 H8          -5.2940     0.6300    -0.8690 h1         1 WFG       0.087700
     33 H9          -6.1400    -0.3090     0.4020 h1         1 WFG       0.087700
     34 H10          1.6490     3.5230     1.2440 h1         1 WFG       0.084700
     35 H11          0.1340     4.0940    -0.6940 hc         1 WFG       0.055033
     36 H12          1.7110     4.8780    -0.8730 hc         1 WFG       0.055033
     37 H13          1.3240     3.4330    -1.8270 hc         1 WFG       0.055033
     38 H14         -2.4420    -1.7620    -0.8840 hn         1 WFG       0.169000
     39 H2           1.0850    -0.9800     1.7900 ha         1 WFG       0.126500
@<TRIPOS>BOND
     1     1     4 ar  
     2     1     9 ar  
     3     1    26 1   
     4     2     5 ar  
     5     2     8 ar  
     6     2    39 1   
     7     3     6 ar  
     8     3     8 ar  
     9     3    27 1   
    10     4    11 ar  
    11     4    28 1   
    12     5    12 ar  
    13     5    29 1   
    14     6    12 ar  
    15     6    30 1   
    16     7     9 ar  
    17     7    10 ar  
    18     7    31 1   
    19     8    13 1   
    20     9    14 1   
    21    10    11 ar  
    22    10    20 1   
    23    11    23 1   
    24    12    25 1   
    25    13    14 2   
    26    13    15 1   
    27    14    18 1   
    28    15    21 2   
    29    15    24 1   
    30    16    17 1   
    31    16    20 1   
    32    16    22 2   
    33    17    23 1   
    34    17    32 1   
    35    17    33 1   
    36    18    19 1   
    37    18    24 1   
    38    18    34 1   
    39    19    35 1   
    40    19    36 1   
    41    19    37 1   
    42    20    38 1   
@<TRIPOS>SUBSTRUCTURE
     1 WFG         1 TEMP              0 ****  ****    0 ROOT
