@<TRIPOS>MOLECULE
WFG
   39    42     1     0     0
SMALL
bcc


@<TRIPOS>ATOM
      1 C1          -0.9940     2.0800     1.4210 ca         1 WFG      -0.109000
      2 C2           1.5520    -1.4470     1.0030 ca         1 WFG      -0.076000
      3 C3           2.6750    -1.4480    -1.1190 ca         1 WFG      -0.076000
      4 C4          -2.3400     1.8410     1.6490 ca         1 WFG      -0.125000
      5 C5           1.5360    -2.8310     1.0060 ca         1 WFG      -0.176000
      6 C6           2.6660    -2.8340    -1.1300 ca         1 WFG      -0.176000
      7 C7          -0.9520     0.3270    -0.2250 ca         1 WFG      -0.118000
      8 C8           2.1150    -0.7380    -0.0580 ca         1 WFG      -0.061800
      9 C9          -0.2860     1.3250     0.4880 ca         1 WFG      -0.050800
     10 C10         -2.2910     0.0860     0.0040 ca         1 WFG       0.012600
     11 C11         -2.9880     0.8450     0.9450 ca         1 WFG       0.096100
     12 C12          2.0970    -3.5020    -0.0630 ca         1 WFG       0.147900
     13 C13          2.1160     0.7270    -0.0510 ce         1 WFG      -0.132400
     14 C14          1.1250     1.5890     0.2240 cf         1 WFG      -0.042400
     15 C15          3.3270     1.5150    -0.3160 c          1 WFG       0.728800
     16 C16         -4.3320    -0.9900    -0.6960 c          1 WFG       0.683500
     17 C17         -5.0240     0.1260     0.0540 c6         1 WFG       0.049400
     18 C18          1.6610     2.9890     0.1450 c5         1 WFG       0.170300
     19 C19          0.9710     3.8440    -0.9010 c3         1 WFG      -0.097100
     20 N20         -2.9850    -0.9260    -0.6590 ns         1 WFG      -0.468100
     21 O21          4.4360     1.1390    -0.5960 o          1 WFG      -0.552500
     22 O22         -4.9460    -1.8380    -1.3150 o          1 WFG      -0.598500
     23 O23         -4.2910     0.5750     1.1800 os         1 WFG      -0.300900
     24 O24          3.0360     2.8160    -0.1930 os         1 WFG      -0.393900
     25 F25          2.0910    -4.8400    -0.0600 f          1 WFG      -0.138900
     26 H1          -0.5030     2.8570     1.9920 ha         1 WFG       0.140000
     27 H3           3.1060    -0.9240    -1.9600 ha         1 WFG       0.144500
     28 H4          -2.8840     2.4220     2.3810 ha         1 WFG       0.155000
     29 H5           1.1020    -3.3760     1.8330 ha         1 WFG       0.154000
     30 H6           3.0940    -3.3830    -1.9560 ha         1 WFG       0.154000
     31 H7          -0.4250    -0.2470    -0.9760 ha         1 WFG       0.151000
     32 H8          -5.2030     0.9490    -0.6490 h1         1 WFG       0.087700
     33 H9          -5.9870    -0.2260     0.4150 h1         1 WFG       0.087700
     34 H10          1.6260     3.4900     1.1170 h1         1 WFG       0.084700
     35 H11         -0.0580     4.0340    -0.6030 hc         1 WFG       0.055033
     36 H12          1.4720     4.8060    -0.9970 hc         1 WFG       0.055033
     37 H13          0.9620     3.3440    -1.8710 hc         1 WFG       0.055033
     38 H14         -2.4660    -1.6150    -1.1830 hn         1 WFG       0.335500
     39 H2           1.1270    -0.9150     1.8430 ha         1 WFG       0.144500
@<TRIPOS>BOND
     1     1     4 ar  
     2     1     9 ar  
     3     1    26 1   
     4     2     5 ar  
     5     2     8 ar  
     6     2    39 1   
     7     3     6 ar  
     8     3     8 ar  
     9     3    27 1   
    10     4    11 ar  
    11     4    28 1   
    12     5    12 ar  
    13     5    29 1   
    14     6    12 ar  
    15     6    30 1   
    16     7     9 ar  
    17     7    10 ar  
    18     7    31 1   
    19     8    13 1   
    20     9    14 1   
    21    10    11 ar  
    22    10    20 1   
    23    11    23 1   
    24    12    25 1   
    25    13    14 2   
    26    13    15 1   
    27    14    18 1   
    28    15    21 2   
    29    15    24 1   
    30    16    17 1   
    31    16    20 1   
    32    16    22 2   
    33    17    23 1   
    34    17    32 1   
    35    17    33 1   
    36    18    19 1   
    37    18    24 1   
    38    18    34 1   
    39    19    35 1   
    40    19    36 1   
    41    19    37 1   
    42    20    38 1   
@<TRIPOS>SUBSTRUCTURE
     1 WFG         1 TEMP              0 ****  ****    0 ROOT
