@<TRIPOS>MOLECULE
WFI
   25    26     1     0     0
SMALL
No Charge or Current Charge


@<TRIPOS>ATOM
      1 C10          1.7390   -12.1600   -31.5680 ca         1 WFI      -0.140500
      2 C13         -3.8440   -15.2870   -31.7130 c3         1 WFI       0.228100
      3 C02         -2.1740   -13.5370   -32.6330 cc         1 WFI       0.292300
      4 C04         -0.3560   -13.5590   -31.3670 cd         1 WFI       0.462900
      5 C05          0.9970   -13.1640   -30.9050 ca         1 WFI      -0.087500
      6 C06          1.6130   -13.7670   -29.7840 ca         1 WFI      -0.140500
      7 C07          2.8980   -13.3560   -29.3870 ca         1 WFI       0.329400
      8 C09          3.0180   -11.8100   -31.1030 ca         1 WFI       0.329400
      9 C12         -2.5530   -14.5230   -31.7530 cd         1 WFI      -0.236300
     10 N03         -0.9340   -12.9910   -32.4210 nc         1 WFI      -0.643000
     11 N08          3.5970   -12.3940   -30.0290 nb         1 WFI      -0.656000
     12 N14         -3.6560   -16.5930   -32.3590 n8         1 WFI      -1.010200
     13 S11         -1.3040   -14.8040   -30.5530 ss         1 WFI       0.033600
     14 H101         1.3390   -11.6460   -32.4380 ha         1 WFI       0.134500
     15 H131        -4.1560   -15.4390   -30.6690 h1         1 WFI       0.044700
     16 H132        -4.6350   -14.7290   -32.2350 h1         1 WFI       0.044700
     17 H011        -2.4310   -12.3010   -34.3900 hc         1 WFI       0.049367
     18 H012        -3.3070   -13.8400   -34.4360 hc         1 WFI       0.049367
     19 H013        -3.8960   -12.5140   -33.4140 hc         1 WFI       0.049367
     20 H061         1.1200   -14.5480   -29.2130 ha         1 WFI       0.134500
     21 H071         3.3830   -13.8130   -28.5250 h4         1 WFI       0.021100
     22 H091         3.5980   -11.0380   -31.6060 h4         1 WFI       0.021100
     23 H143        -4.5610   -17.0780   -32.3950 hn         1 WFI       0.403500
     24 H142        -3.4240   -16.4390   -33.3470 hn         1 WFI       0.403500
     25 C01         -2.9950   -13.0180   -33.7810 c3         1 WFI      -0.118400
@<TRIPOS>BOND
     1     1     5 ar  
     2     1     8 ar  
     3     1    14 1   
     4     2     9 1   
     5     2    12 1   
     6     2    15 1   
     7     2    16 1   
     8     3     9 2   
     9     3    10 1   
    10     3    25 1   
    11     4     5 1   
    12     4    10 2   
    13     4    13 1   
    14     5     6 ar  
    15     6     7 ar  
    16     6    20 1   
    17     7    11 ar  
    18     7    21 1   
    19     8    11 ar  
    20     8    22 1   
    21     9    13 1   
    22    12    23 1   
    23    12    24 1   
    24    17    25 1   
    25    18    25 1   
    26    19    25 1   
@<TRIPOS>SUBSTRUCTURE
     1 WFI         1 TEMP              0 ****  ****    0 ROOT
