@<TRIPOS>MOLECULE
WFI
   25    26     1     0     0
SMALL
abcg2


@<TRIPOS>ATOM
      1 C10          1.6710   -12.1020   -31.4960 ca         1 WFI      -0.140500
      2 C13         -3.7850   -15.3370   -32.0070 c3         1 WFI       0.228100
      3 C02         -2.2080   -13.3920   -32.6970 cc         1 WFI       0.292300
      4 C04         -0.3650   -13.5230   -31.4520 cd         1 WFI       0.462900
      5 C05          0.9630   -13.1750   -30.9450 ca         1 WFI      -0.087500
      6 C06          1.5760   -13.8820   -29.9080 ca         1 WFI      -0.140500
      7 C07          2.8370   -13.4950   -29.4790 ca         1 WFI       0.329400
      8 C09          2.9260   -11.7950   -30.9950 ca         1 WFI       0.329400
      9 C12         -2.5370   -14.5140   -31.9780 cd         1 WFI      -0.236300
     10 N03         -0.9840   -12.8520   -32.3870 nc         1 WFI      -0.643000
     11 N08          3.5170   -12.4700   -30.0020 nb         1 WFI      -0.656000
     12 N14         -3.4890   -16.7550   -31.7760 n8         1 WFI      -1.010200
     13 S11         -1.2580   -14.9020   -30.8820 ss         1 WFI       0.033600
     14 H101         1.2450   -11.5230   -32.3020 ha         1 WFI       0.134500
     15 H131        -4.4560   -15.0070   -31.2090 h1         1 WFI       0.044700
     16 H132        -4.3040   -15.1470   -32.9530 h1         1 WFI       0.044700
     17 H011        -2.4320   -12.4730   -34.6080 hc         1 WFI       0.049367
     18 H012        -3.8690   -13.3550   -34.0650 hc         1 WFI       0.049367
     19 H013        -3.4670   -11.7910   -33.3560 hc         1 WFI       0.049367
     20 H061         1.0870   -14.7210   -29.4310 ha         1 WFI       0.134500
     21 H071         3.3220   -14.0370   -28.6740 h4         1 WFI       0.021100
     22 H091         3.4840   -10.9650   -31.4150 h4         1 WFI       0.021100
     23 H143        -4.3570   -17.2730   -31.6910 hn         1 WFI       0.403500
     24 H142        -2.9980   -17.1400   -32.5770 hn         1 WFI       0.403500
     25 C01         -3.0450   -12.7230   -33.7400 c3         1 WFI      -0.118400
@<TRIPOS>BOND
     1     1     5 ar  
     2     1     8 ar  
     3     1    14 1   
     4     2     9 1   
     5     2    12 1   
     6     2    15 1   
     7     2    16 1   
     8     3     9 2   
     9     3    10 1   
    10     3    25 1   
    11     4     5 1   
    12     4    10 2   
    13     4    13 1   
    14     5     6 ar  
    15     6     7 ar  
    16     6    20 1   
    17     7    11 ar  
    18     7    21 1   
    19     8    11 ar  
    20     8    22 1   
    21     9    13 1   
    22    12    23 1   
    23    12    24 1   
    24    17    25 1   
    25    18    25 1   
    26    19    25 1   
@<TRIPOS>SUBSTRUCTURE
     1 WFI         1 TEMP              0 ****  ****    0 ROOT
