@<TRIPOS>MOLECULE
WFJ
   60    63     1     0     0
SMALL
No Charge or Current Charge


@<TRIPOS>ATOM
      1 C01         -8.7250    16.1900    11.1810 c3         1 WFJ      -0.085100
      2 C02         -7.2300    15.8050    11.2330 c3         1 WFJ      -0.129700
      3 C03         -6.9670    14.3700    10.7770 ca         1 WFJ       0.181300
      4 C05         -6.8120    12.9090     9.0210 ca         1 WFJ       0.399900
      5 C08         -6.2990    12.0730    11.0570 ca         1 WFJ       0.398900
      6 C10         -6.5700    13.3240    11.6510 ca         1 WFJ      -0.117900
      7 C12         -7.5700    13.7080    13.8470 c3         1 WFJ       0.156600
      8 C13         -7.0870    13.9690    15.2810 cy         1 WFJ      -0.106700
      9 C14         -6.2680    15.2790    15.5440 cy         1 WFJ       0.195800
     10 C16         -8.1470    14.5580    16.2700 cy         1 WFJ       0.195800
     11 C17         -7.9220    17.1660    16.3440 ca         1 WFJ       0.282000
     12 C18         -6.8830    18.0580    16.6860 ca         1 WFJ      -0.172000
     13 C19         -7.1610    19.3500    17.1590 ca         1 WFJ      -0.114000
     14 C20         -8.4890    19.7740    17.2930 ca         1 WFJ      -0.138000
     15 C21         -9.5400    18.9130    16.9420 ca         1 WFJ      -0.136000
     16 C22         -9.2870    17.6080    16.4630 ca         1 WFJ       0.243000
     17 C24        -11.6350    16.7510    16.8820 c6         1 WFJ       0.179800
     18 C25        -12.4390    15.4540    16.6090 c6         1 WFJ      -0.055900
     19 C26        -12.7770    15.3020    15.1000 c6         1 WFJ      -0.192700
     20 C27        -11.4660    15.3750    14.2670 c6         1 WFJ      -0.055900
     21 C28        -10.6480    16.6530    14.5940 c6         1 WFJ       0.179800
     22 C29        -13.5960    14.0240    14.8020 c          1 WFJ       0.722000
     23 N04         -7.0850    14.1480     9.4500 nb         1 WFJ      -0.283000
     24 N06         -6.9340    12.6990     7.6910 nv         1 WFJ      -1.047900
     25 N07         -6.4190    11.8560     9.7440 nb         1 WFJ      -0.325000
     26 N09         -5.8920    10.9960    11.7830 nv         1 WFJ      -1.060900
     27 N15         -7.5750    15.8840    15.9120 nn         1 WFJ      -0.778400
     28 N23        -10.4000    16.8090    16.0540 nh         1 WFJ      -0.772400
     29 O11         -6.4130    13.5070    13.0150 os         1 WFJ      -0.360100
     30 O30        -14.7160    14.1600    14.3310 o          1 WFJ      -0.735000
     31 O31        -13.0960    12.9360    15.0510 o          1 WFJ      -0.735000
     32 H1          -8.8730    17.2040    11.5730 hc         1 WFJ       0.041700
     33 H2          -9.0970    16.1640    10.1500 hc         1 WFJ       0.041700
     34 H3          -9.3290    15.4980    11.7790 hc         1 WFJ       0.041700
     35 H4          -6.8510    15.9710    12.2470 hc         1 WFJ       0.055200
     36 H5          -6.6700    16.5000    10.5960 hc         1 WFJ       0.055200
     37 H6          -8.1600    14.5690    13.5160 h1         1 WFJ       0.050700
     38 H7          -8.2160    12.8210    13.8430 h1         1 WFJ       0.050700
     39 H8          -6.6000    13.0590    15.6460 hc         1 WFJ       0.062700
     40 H9          -5.5490    15.1950    16.3690 h1         1 WFJ       0.057950
     41 H10         -5.7800    15.6880    14.6510 h1         1 WFJ       0.057950
     42 H11         -9.1840    14.3720    15.9740 h1         1 WFJ       0.057950
     43 H12         -7.9930    14.2620    17.3150 h1         1 WFJ       0.057950
     44 H13         -5.8460    17.7470    16.5990 ha         1 WFJ       0.101000
     45 H14         -6.3460    20.0200    17.4250 ha         1 WFJ       0.097000
     46 H15         -8.7050    20.7770    17.6560 ha         1 WFJ       0.100000
     47 H16        -10.5620    19.2720    17.0250 ha         1 WFJ       0.113000
     48 H17        -11.3730    16.7870    17.9500 h1         1 WFJ       0.020200
     49 H18        -12.2720    17.6210    16.6660 h1         1 WFJ       0.020200
     50 H19        -13.3640    15.4650    17.2010 hc         1 WFJ       0.046700
     51 H20        -11.8580    14.5880    16.9550 hc         1 WFJ       0.046700
     52 H21        -13.4010    16.1590    14.8110 hc         1 WFJ       0.025700
     53 H22        -11.7030    15.3590    13.1950 hc         1 WFJ       0.046700
     54 H23        -10.8500    14.4880    14.4580 hc         1 WFJ       0.046700
     55 H24         -9.6930    16.6080    14.0510 h1         1 WFJ       0.020200
     56 H25        -11.1930    17.5330    14.2200 h1         1 WFJ       0.020200
     57 H26         -7.0120    13.5070     7.0790 hn         1 WFJ       0.478000
     58 H27         -6.5330    11.8530     7.2920 hn         1 WFJ       0.478000
     59 H28         -5.4680    10.2150    11.2910 hn         1 WFJ       0.489000
     60 H29         -5.5810    11.1650    12.7370 hn         1 WFJ       0.489000
@<TRIPOS>BOND
     1     1     2 1   
     2     1    32 1   
     3     1    33 1   
     4     1    34 1   
     5     2     3 1   
     6     2    35 1   
     7     2    36 1   
     8     3     6 ar  
     9     3    23 ar  
    10     4    23 ar  
    11     4    24 1   
    12     4    25 ar  
    13     5     6 ar  
    14     5    25 ar  
    15     5    26 1   
    16     6    29 1   
    17     7     8 1   
    18     7    29 1   
    19     7    37 1   
    20     7    38 1   
    21     8     9 1   
    22     8    10 1   
    23     8    39 1   
    24     9    27 1   
    25     9    40 1   
    26     9    41 1   
    27    10    27 1   
    28    10    42 1   
    29    10    43 1   
    30    11    12 ar  
    31    11    16 ar  
    32    11    27 1   
    33    12    13 ar  
    34    12    44 1   
    35    13    14 ar  
    36    13    45 1   
    37    14    15 ar  
    38    14    46 1   
    39    15    16 ar  
    40    15    47 1   
    41    16    28 1   
    42    17    18 1   
    43    17    28 1   
    44    17    48 1   
    45    17    49 1   
    46    18    19 1   
    47    18    50 1   
    48    18    51 1   
    49    19    20 1   
    50    19    22 1   
    51    19    52 1   
    52    20    21 1   
    53    20    53 1   
    54    20    54 1   
    55    21    28 1   
    56    21    55 1   
    57    21    56 1   
    58    22    30 1   
    59    22    31 1   
    60    24    57 1   
    61    24    58 1   
    62    26    59 1   
    63    26    60 1   
@<TRIPOS>SUBSTRUCTURE
     1 WFJ         1 TEMP              0 ****  ****    0 ROOT
