@<TRIPOS>MOLECULE
WFJ
   60    63     1     0     0
SMALL
bcc


@<TRIPOS>ATOM
      1 C01         -7.6400    16.4560    10.6290 c3         1 WFJ      -0.085100
      2 C02         -6.2960    15.7560    10.8200 c3         1 WFJ      -0.129700
      3 C03         -6.3790    14.2830    10.5450 ca         1 WFJ       0.509600
      4 C05         -6.6060    12.6300     9.0010 ca         1 WFJ       0.925900
      5 C08         -6.3750    11.9830    11.1630 ca         1 WFJ       0.727200
      6 C10         -6.3080    13.3400    11.5480 ca         1 WFJ      -0.248500
      7 C12         -7.3760    13.8200    13.5800 c3         1 WFJ       0.133400
      8 C13         -7.0600    14.2640    14.9860 cy         1 WFJ      -0.106700
      9 C14         -6.5520    15.7100    15.0960 cy         1 WFJ       0.195800
     10 C16         -8.3150    14.7480    15.7320 cy         1 WFJ       0.195800
     11 C17         -8.2060    17.2440    16.1840 ca         1 WFJ       0.143600
     12 C18         -7.2130    18.1880    16.4560 ca         1 WFJ      -0.190000
     13 C19         -7.4730    19.3160    17.2220 ca         1 WFJ      -0.132000
     14 C20         -8.7410    19.5180    17.7390 ca         1 WFJ      -0.156000
     15 C21         -9.7490    18.6060    17.4450 ca         1 WFJ      -0.154000
     16 C22         -9.5200    17.4780    16.6610 ca         1 WFJ       0.104600
     17 C24        -11.6970    16.5400    17.2110 c6         1 WFJ       0.179800
     18 C25        -12.5690    15.3310    16.9140 c6         1 WFJ      -0.055900
     19 C26        -13.0350    15.3160    15.4580 c6         1 WFJ      -0.192700
     20 C27        -11.8250    15.4430    14.5450 c6         1 WFJ      -0.055900
     21 C28        -10.9470    16.6260    14.9230 c6         1 WFJ       0.179800
     22 C29        -13.9240    14.0830    15.1760 c          1 WFJ       0.932600
     23 N04         -6.5280    13.9290     9.2620 nb         1 WFJ      -0.809000
     24 N06         -6.8200    12.2670     7.7080 nv         1 WFJ      -0.937500
     25 N07         -6.5240    11.6390     9.8900 nb         1 WFJ      -0.851000
     26 N09         -6.3090    11.0000    12.0840 nv         1 WFJ      -0.950500
     27 N15         -7.9090    16.1250    15.4330 nn         1 WFJ      -0.640000
     28 N23        -10.5460    16.5720    16.3270 nh         1 WFJ      -0.634000
     29 O11         -6.1520    13.6620    12.8670 os         1 WFJ      -0.336900
     30 O30        -14.9500    13.9780    15.8810 o          1 WFJ      -0.840300
     31 O31        -13.5540    13.2920    14.2860 o          1 WFJ      -0.840300
     32 H1          -7.5400    17.5270    10.8010 hc         1 WFJ       0.041700
     33 H2          -8.0200    16.3110     9.6180 hc         1 WFJ       0.041700
     34 H3          -8.3880    16.0760    11.3270 hc         1 WFJ       0.041700
     35 H4          -5.9230    15.9400    11.8270 hc         1 WFJ       0.055200
     36 H5          -5.5670    16.1850    10.1290 hc         1 WFJ       0.055200
     37 H6          -8.0110    14.5650    13.0840 h1         1 WFJ       0.050700
     38 H7          -7.9340    12.8760    13.5990 h1         1 WFJ       0.050700
     39 H8          -6.4610    13.5160    15.5070 hc         1 WFJ       0.062700
     40 H9          -5.8360    15.8360    15.9170 h1         1 WFJ       0.057950
     41 H10         -6.1350    16.1760    14.1990 h1         1 WFJ       0.057950
     42 H11         -9.2760    14.4400    15.3220 h1         1 WFJ       0.057950
     43 H12         -8.2970    14.5090    16.8000 h1         1 WFJ       0.057950
     44 H13         -6.2100    18.0330    16.0770 ha         1 WFJ       0.119000
     45 H14         -6.6770    20.0200    17.4230 ha         1 WFJ       0.115000
     46 H15         -8.9590    20.3840    18.3510 ha         1 WFJ       0.118000
     47 H16        -10.7440    18.7940    17.8280 ha         1 WFJ       0.131000
     48 H17        -11.3460    16.5020    18.2440 h1         1 WFJ       0.020200
     49 H18        -12.3150    17.4490    17.1150 h1         1 WFJ       0.020200
     50 H19        -13.4300    15.3430    17.5840 hc         1 WFJ       0.046700
     51 H20        -12.0030    14.4190    17.1330 hc         1 WFJ       0.046700
     52 H21        -13.6620    16.2090    15.3170 hc         1 WFJ       0.025700
     53 H22        -12.1350    15.5610    13.5040 hc         1 WFJ       0.046700
     54 H23        -11.2340    14.5240    14.5880 hc         1 WFJ       0.046700
     55 H24        -10.0520    16.6340    14.2980 h1         1 WFJ       0.020200
     56 H25        -11.4860    17.5660    14.7180 h1         1 WFJ       0.020200
     57 H26         -6.6250    12.9550     7.0020 hn         1 WFJ       0.422800
     58 H27         -6.6070    11.3170     7.4560 hn         1 WFJ       0.422800
     59 H28         -6.1810    10.0570    11.7580 hn         1 WFJ       0.433800
     60 H29         -5.9590    11.2060    13.0040 hn         1 WFJ       0.433800
@<TRIPOS>BOND
     1     1     2 1   
     2     1    32 1   
     3     1    33 1   
     4     1    34 1   
     5     2     3 1   
     6     2    35 1   
     7     2    36 1   
     8     3     6 ar  
     9     3    23 ar  
    10     4    23 ar  
    11     4    24 1   
    12     4    25 ar  
    13     5     6 ar  
    14     5    25 ar  
    15     5    26 1   
    16     6    29 1   
    17     7     8 1   
    18     7    29 1   
    19     7    37 1   
    20     7    38 1   
    21     8     9 1   
    22     8    10 1   
    23     8    39 1   
    24     9    27 1   
    25     9    40 1   
    26     9    41 1   
    27    10    27 1   
    28    10    42 1   
    29    10    43 1   
    30    11    12 ar  
    31    11    16 ar  
    32    11    27 1   
    33    12    13 ar  
    34    12    44 1   
    35    13    14 ar  
    36    13    45 1   
    37    14    15 ar  
    38    14    46 1   
    39    15    16 ar  
    40    15    47 1   
    41    16    28 1   
    42    17    18 1   
    43    17    28 1   
    44    17    48 1   
    45    17    49 1   
    46    18    19 1   
    47    18    50 1   
    48    18    51 1   
    49    19    20 1   
    50    19    22 1   
    51    19    52 1   
    52    20    21 1   
    53    20    53 1   
    54    20    54 1   
    55    21    28 1   
    56    21    55 1   
    57    21    56 1   
    58    22    30 1   
    59    22    31 1   
    60    24    57 1   
    61    24    58 1   
    62    26    59 1   
    63    26    60 1   
@<TRIPOS>SUBSTRUCTURE
     1 WFJ         1 TEMP              0 ****  ****    0 ROOT
