@<TRIPOS>MOLECULE
WFK
   30    31     1     0     0
SMALL
No Charge or Current Charge


@<TRIPOS>ATOM
      1 C10          4.8140     6.4480    20.7010 ca         1 WFK      -0.054000
      2 C13          4.0060     6.3020    21.8420 ca         1 WFK      -0.124500
      3 C17          4.2800     7.0460    22.9990 ca         1 WFK       0.138000
      4 C01          6.0270     7.4940    18.1610 c5         1 WFK      -0.198700
      5 C02          6.8140     7.5320    19.5090 c          1 WFK       0.595700
      6 C03          6.5120     8.5610    17.1370 c5         1 WFK       0.175300
      7 C04          6.2630     6.1270    17.4310 c5         1 WFK      -0.049400
      8 C05          5.9040     7.3530    20.7060 ca         1 WFK      -0.161600
      9 O06          8.0260     7.6690    19.6410 o          1 WFK      -0.560100
     10 C07          7.7580     7.8840    16.5060 c5         1 WFK      -0.081400
     11 O08          6.8330     9.8070    17.7510 oh         1 WFK      -0.677000
     12 C09          7.2880     6.4130    16.2770 c5         1 WFK      -0.196700
     13 C11          6.1780     8.0820    21.8850 ca         1 WFK      -0.054000
     14 C12          6.6220     6.2410    14.8760 c          1 WFK       0.711000
     15 C14          5.3660     7.9330    23.0230 ca         1 WFK      -0.124500
     16 O15          5.6400     6.9050    14.5760 o          1 WFK      -0.732500
     17 O16          7.1080     5.4310    14.1020 o          1 WFK      -0.732500
     18 Cl18         3.2670     6.8590    24.4240 cl         1 WFK      -0.228000
     19 H26          4.5940     5.8430    19.8230 ha         1 WFK       0.138500
     20 H28          3.1700     5.6070    21.8310 ha         1 WFK       0.127000
     21 H19          4.9600     7.6210    18.3680 hc         1 WFK       0.065700
     22 H20          5.7380     8.7130    16.3700 h1         1 WFK       0.091700
     23 H22          6.6440     5.3620    18.1200 hc         1 WFK       0.043200
     24 H21          5.3220     5.7250    17.0380 hc         1 WFK       0.043200
     25 H24          8.0620     8.3730    15.5720 hc         1 WFK       0.045700
     26 H23          8.6300     7.9180    17.1670 hc         1 WFK       0.045700
     27 H08          7.6810     9.6680    18.2300 ho         1 WFK       0.447000
     28 H25          8.1410     5.7270    16.3340 hc         1 WFK       0.042700
     29 H27          7.0190     8.7720    21.9170 ha         1 WFK       0.138500
     30 H29          5.5800     8.5030    23.9230 ha         1 WFK       0.127000
@<TRIPOS>BOND
     1     1     2 ar  
     2     1     8 ar  
     3     1    19 1   
     4     2     3 ar  
     5     2    20 1   
     6     3    15 ar  
     7     3    18 1   
     8     4     5 1   
     9     4     6 1   
    10     4     7 1   
    11     4    21 1   
    12     5     8 1   
    13     5     9 2   
    14     6    10 1   
    15     6    11 1   
    16     6    22 1   
    17     7    12 1   
    18     7    23 1   
    19     7    24 1   
    20     8    13 ar  
    21    10    12 1   
    22    10    25 1   
    23    10    26 1   
    24    11    27 1   
    25    12    14 1   
    26    12    28 1   
    27    13    15 ar  
    28    13    29 1   
    29    14    16 1   
    30    14    17 1   
    31    15    30 1   
@<TRIPOS>SUBSTRUCTURE
     1 WFK         1 TEMP              0 ****  ****    0 ROOT
