@<TRIPOS>MOLECULE
WFK
   30    31     1     0     0
SMALL
abcg2


@<TRIPOS>ATOM
      1 C10          4.6260     6.7330    20.5060 ca         1 WFK      -0.054000
      2 C13          3.9910     6.2150    21.6270 ca         1 WFK      -0.124500
      3 C17          4.4730     6.5470    22.8860 ca         1 WFK       0.138000
      4 C01          5.9900     7.7560    18.0750 c5         1 WFK      -0.198700
      5 C02          6.4590     8.1350    19.4580 c          1 WFK       0.595700
      6 C03          6.5770     8.6300    16.9320 c5         1 WFK       0.175300
      7 C04          6.4910     6.3050    17.7590 c5         1 WFK      -0.049400
      8 C05          5.7350     7.5740    20.6360 ca         1 WFK      -0.161600
      9 O06          7.4440     8.8450    19.6310 o          1 WFK      -0.560100
     10 C07          7.8030     7.8580    16.4480 c5         1 WFK      -0.081400
     11 O08          6.7980     9.9970    17.2530 oh         1 WFK      -0.677000
     12 C09          7.3130     6.4090    16.4570 c5         1 WFK      -0.196700
     13 C11          6.1960     7.8900    21.9190 ca         1 WFK      -0.054000
     14 C12          6.5100     6.0070    15.1850 c          1 WFK       0.711000
     15 C14          5.5720     7.3830    23.0460 ca         1 WFK      -0.124500
     16 O15          6.8010     6.5880    14.1090 o          1 WFK      -0.732500
     17 O16          5.6610     5.0880    15.3150 o          1 WFK      -0.732500
     18 CL18         3.6830     5.8960    24.3000 cl         1 WFK      -0.228000
     19 H26          4.2450     6.4660    19.5320 ha         1 WFK       0.138500
     20 H28          3.1360     5.5630    21.5230 ha         1 WFK       0.127000
     21 H19          4.9020     7.7960    18.0520 hc         1 WFK       0.065700
     22 H20          5.8400     8.6410    16.1260 h1         1 WFK       0.091700
     23 H22          7.1170     5.9370    18.5740 hc         1 WFK       0.043200
     24 H21          5.6610     5.6120    17.6450 hc         1 WFK       0.043200
     25 H24          8.1370     8.1830    15.4650 hc         1 WFK       0.045700
     26 H23          8.6190     7.9930    17.1630 hc         1 WFK       0.045700
     27 H08          7.3290     9.9940    18.0660 ho         1 WFK       0.447000
     28 H25          8.1530     5.7100    16.4920 hc         1 WFK       0.042700
     29 H27          7.0540     8.5390    22.0240 ha         1 WFK       0.138500
     30 H29          5.9300     7.6300    24.0360 ha         1 WFK       0.127000
@<TRIPOS>BOND
     1     1     2 ar  
     2     1     8 ar  
     3     1    19 1   
     4     2     3 ar  
     5     2    20 1   
     6     3    15 ar  
     7     3    18 1   
     8     4     5 1   
     9     4     6 1   
    10     4     7 1   
    11     4    21 1   
    12     5     8 1   
    13     5     9 2   
    14     6    10 1   
    15     6    11 1   
    16     6    22 1   
    17     7    12 1   
    18     7    23 1   
    19     7    24 1   
    20     8    13 ar  
    21    10    12 1   
    22    10    25 1   
    23    10    26 1   
    24    11    27 1   
    25    12    14 1   
    26    12    28 1   
    27    13    15 ar  
    28    13    29 1   
    29    14    16 1   
    30    14    17 1   
    31    15    30 1   
@<TRIPOS>SUBSTRUCTURE
     1 WFK         1 TEMP              0 ****  ****    0 ROOT
