@<TRIPOS>MOLECULE
WFM
   54    59     1     0     0
SMALL
No Charge or Current Charge


@<TRIPOS>ATOM
      1 N1          19.4110   -43.2610    -9.6020 nb         1 WFM      -0.779000
      2 N3          15.8390   -35.3400    -3.7050 nb         1 WFM      -0.227000
      3 C4          20.9560   -40.8700    -7.2730 ca         1 WFM       0.178100
      4 C5          22.2990   -40.9620    -7.6670 ca         1 WFM      -0.152000
      5 C6          22.6910   -41.8220    -8.7030 ca         1 WFM      -0.036000
      6 C7          21.7280   -42.6030    -9.3620 ca         1 WFM      -0.169000
      7 C8          22.1120   -43.4680   -10.4030 ca         1 WFM       0.016000
      8 C10         19.7960   -44.0730   -10.5750 ca         1 WFM       0.655900
      9 C13         19.1960   -38.8230    -4.7180 c5         1 WFM       0.166300
     10 C15         15.2700   -36.5600    -3.8010 ca         1 WFM       0.171500
     11 C17         13.1010   -35.5550    -3.9830 ca         1 WFM       0.431900
     12 C20         14.8110   -38.8210    -3.9170 cc         1 WFM      -0.170100
     13 C21         17.6700   -39.4510    -2.9120 c5         1 WFM       0.085300
     14 C9          21.1150   -44.2250   -11.0300 ca         1 WFM      -0.139900
     15 N           18.7410   -44.7170   -11.0810 nv         1 WFM      -1.060900
     16 C11         20.3630   -42.5250    -8.9870 ca         1 WFM       0.378000
     17 C12         19.9890   -41.6570    -7.9490 ca         1 WFM      -0.219000
     18 O1          20.6890   -39.9760    -6.2390 os         1 WFM      -0.339100
     19 C3          19.3270   -40.0240    -5.7200 c5         1 WFM       0.157300
     20 C2          19.1450   -41.3110    -4.8440 c5         1 WFM      -0.109400
     21 C1          19.7260   -40.8910    -3.4620 c5         1 WFM      -0.093400
     22 O2          17.8960   -38.2010    -4.9060 os         1 WFM      -0.453000
     23 C14         17.2590   -38.1140    -3.6120 c5         1 WFM       0.315300
     24 O3          17.4850   -39.4680    -1.4790 oh         1 WFM      -0.697000
     25 C           19.1900   -39.4410    -3.2800 c5         1 WFM       0.121000
     26 O           19.9140   -38.6860    -2.3090 oh         1 WFM      -0.695000
     27 N2          15.8260   -37.8380    -3.7850 na         1 WFM      -0.189400
     28 C19         13.6330   -38.1020    -4.0100 cd         1 WFM      -0.202200
     29 C18         13.9120   -36.6910    -3.9380 ca         1 WFM      -0.259800
     30 N4          13.6400   -34.3310    -3.8910 nb         1 WFM      -0.299000
     31 C16         14.9900   -34.2840    -3.7550 ca         1 WFM       0.181900
     32 H1          23.0470   -40.3580    -7.1590 ha         1 WFM       0.132000
     33 H2          23.7400   -41.8780    -8.9890 ha         1 WFM       0.118000
     34 H3          23.1510   -43.5500   -10.7160 ha         1 WFM       0.130000
     35 H4          19.9910   -38.0760    -4.8520 h1         1 WFM       0.107700
     36 H5          14.9960   -39.8910    -3.9410 h4         1 WFM       0.214000
     37 H6          17.1400   -40.2950    -3.3690 h1         1 WFM       0.055700
     38 H7          17.8530   -44.3000   -10.8320 hn         1 WFM       0.488000
     39 H8          18.8290   -45.0620   -12.0300 hn         1 WFM       0.488000
     40 H9          18.9370   -41.6260    -7.6940 ha         1 WFM       0.134000
     41 H10         18.6010   -39.9240    -6.5370 h1         1 WFM       0.080700
     42 H11         18.0890   -41.5970    -4.7810 hc         1 WFM       0.060200
     43 H12         19.6670   -42.1850    -5.2470 hc         1 WFM       0.060200
     44 H13         19.4140   -41.5630    -2.6540 hc         1 WFM       0.063700
     45 H14         20.8220   -40.9030    -3.4840 hc         1 WFM       0.063700
     46 H15         17.6740   -37.2630    -3.0550 h2         1 WFM       0.119700
     47 H16         16.5150   -39.5250    -1.3050 ho         1 WFM       0.517000
     48 H17         19.3520   -38.7780    -1.4970 ho         1 WFM       0.525000
     49 H18         12.6470   -38.5510    -4.1210 ha         1 WFM       0.201000
     50 H19         11.2660   -34.7620    -4.3820 hn         1 WFM       0.495000
     51 H20         11.3450   -36.4870    -4.4500 hn         1 WFM       0.495000
     52 H21         15.4380   -33.2950    -3.6790 h5         1 WFM       0.045100
     53 Br          21.5690   -45.4230   -12.4620 br         1 WFM      -0.093100
     54 N5          11.7540   -35.6160    -4.1240 nv         1 WFM      -1.071900
@<TRIPOS>BOND
     1     1     8 ar  
     2     1    16 ar  
     3     2    10 ar  
     4     2    31 ar  
     5     3     4 ar  
     6     3    17 ar  
     7     3    18 1   
     8     4     5 ar  
     9     4    32 1   
    10     5     6 ar  
    11     5    33 1   
    12     6     7 ar  
    13     6    16 ar  
    14     7    14 ar  
    15     7    34 1   
    16     8    14 ar  
    17     8    15 1   
    18     9    19 1   
    19     9    22 1   
    20     9    25 1   
    21     9    35 1   
    22    10    27 1   
    23    10    29 ar  
    24    11    29 ar  
    25    11    30 ar  
    26    11    54 1   
    27    12    27 1   
    28    12    28 2   
    29    12    36 1   
    30    13    23 1   
    31    13    24 1   
    32    13    25 1   
    33    13    37 1   
    34    14    53 1   
    35    15    38 1   
    36    15    39 1   
    37    16    17 ar  
    38    17    40 1   
    39    18    19 1   
    40    19    20 1   
    41    19    41 1   
    42    20    21 1   
    43    20    42 1   
    44    20    43 1   
    45    21    25 1   
    46    21    44 1   
    47    21    45 1   
    48    22    23 1   
    49    23    27 1   
    50    23    46 1   
    51    24    47 1   
    52    25    26 1   
    53    26    48 1   
    54    28    29 1   
    55    28    49 1   
    56    30    31 ar  
    57    31    52 1   
    58    50    54 1   
    59    51    54 1   
@<TRIPOS>SUBSTRUCTURE
     1 WFM         1 TEMP              0 ****  ****    0 ROOT
