@<TRIPOS>MOLECULE
WFM
   54    59     1     0     0
SMALL
abcg2


@<TRIPOS>ATOM
      1 N1          19.3780   -43.2460    -9.6300 nb         1 WFM      -0.779000
      2 N3          15.7230   -35.4430    -3.2030 nb         1 WFM      -0.227000
      3 C4          20.8580   -40.9990    -7.1900 ca         1 WFM       0.178100
      4 C5          22.2340   -41.1080    -7.5100 ca         1 WFM      -0.152000
      5 C6          22.6380   -41.9280    -8.5240 ca         1 WFM      -0.036000
      6 C7          21.6980   -42.6720    -9.2660 ca         1 WFM      -0.169000
      7 C8          22.0550   -43.5350   -10.3230 ca         1 WFM       0.016000
      8 C10         19.7130   -44.0500   -10.6140 ca         1 WFM       0.655900
      9 C13         19.2100   -38.8190    -4.7890 c5         1 WFM       0.166300
     10 C15         15.2520   -36.5810    -3.7150 ca         1 WFM       0.171500
     11 C17         13.0420   -35.7460    -3.9130 ca         1 WFM       0.431900
     12 C20         15.1310   -38.6610    -4.5010 cc         1 WFM      -0.170100
     13 C21         17.7650   -39.0650    -2.8820 c5         1 WFM       0.085300
     14 C9          21.0870   -44.2180   -10.9910 ca         1 WFM      -0.139900
     15 N           18.7220   -44.7390   -11.2240 nv         1 WFM      -1.060900
     16 C11         20.3250   -42.5660    -8.9510 ca         1 WFM       0.378000
     17 C12         19.9210   -41.7190    -7.8960 ca         1 WFM      -0.219000
     18 O1          20.5790   -40.1510    -6.1860 os         1 WFM      -0.339100
     19 C3          19.2420   -40.0430    -5.7110 c5         1 WFM       0.157300
     20 C2          18.8880   -41.2250    -4.8050 c5         1 WFM      -0.109400
     21 C1          19.5050   -40.8490    -3.4600 c5         1 WFM      -0.093400
     22 O2          18.0050   -38.0940    -4.9780 os         1 WFM      -0.453000
     23 C14         17.3810   -37.8640    -3.7410 c5         1 WFM       0.315300
     24 O3          17.6530   -38.7450    -1.5250 oh         1 WFM      -0.697000
     25 C           19.2130   -39.3520    -3.3370 c5         1 WFM       0.121000
     26 O           20.1200   -38.6350    -2.5490 oh         1 WFM      -0.695000
     27 N2          15.9740   -37.7120    -3.9560 na         1 WFM      -0.189400
     28 C19         13.8720   -38.1580    -4.5990 cd         1 WFM      -0.202200
     29 C18         13.9320   -36.8230    -4.0970 ca         1 WFM      -0.259800
     30 N4          13.5020   -34.6000    -3.4020 nb         1 WFM      -0.299000
     31 C16         14.7920   -34.5170    -3.0840 ca         1 WFM       0.181900
     32 H1          22.9540   -40.5350    -6.9400 ha         1 WFM       0.132000
     33 H2          23.6910   -42.0120    -8.7660 ha         1 WFM       0.118000
     34 H3          23.1000   -43.6450   -10.5880 ha         1 WFM       0.130000
     35 H4          20.0710   -38.1680    -4.9720 h1         1 WFM       0.107700
     36 H5          15.5020   -39.6330    -4.7860 h4         1 WFM       0.214000
     37 H6          17.1220   -39.9160    -3.1390 h1         1 WFM       0.055700
     38 H7          17.7820   -44.4490   -11.0110 hn         1 WFM       0.488000
     39 H8          18.8520   -45.1260   -12.1430 hn         1 WFM       0.488000
     40 H9          18.8630   -41.6700    -7.6770 ha         1 WFM       0.134000
     41 H10         18.5500   -39.9120    -6.5480 h1         1 WFM       0.080700
     42 H11         17.7990   -41.3000    -4.7320 hc         1 WFM       0.060200
     43 H12         19.2360   -42.1830    -5.1920 hc         1 WFM       0.060200
     44 H13         19.1010   -41.4260    -2.6260 hc         1 WFM       0.063700
     45 H14         20.5850   -41.0100    -3.4780 hc         1 WFM       0.063700
     46 H15         17.7300   -36.9370    -3.2700 h2         1 WFM       0.119700
     47 H16         17.4890   -39.5500    -1.0230 ho         1 WFM       0.517000
     48 H17         19.7540   -38.5800    -1.6560 ho         1 WFM       0.525000
     49 H18         13.0130   -38.6820    -4.9860 ha         1 WFM       0.201000
     50 H19         11.1690   -35.0030    -4.1720 hn         1 WFM       0.495000
     51 H20         11.3750   -36.6170    -4.7210 hn         1 WFM       0.495000
     52 H21         15.1120   -33.5640    -2.6770 h5         1 WFM       0.045100
     53 BR          21.5620   -45.3900   -12.3910 br         1 WFM      -0.093100
     54 N5          11.7380   -35.8310    -4.2110 nv         1 WFM      -1.071900
@<TRIPOS>BOND
     1     1     8 ar  
     2     1    16 ar  
     3     2    10 ar  
     4     2    31 ar  
     5     3     4 ar  
     6     3    17 ar  
     7     3    18 1   
     8     4     5 ar  
     9     4    32 1   
    10     5     6 ar  
    11     5    33 1   
    12     6     7 ar  
    13     6    16 ar  
    14     7    14 ar  
    15     7    34 1   
    16     8    14 ar  
    17     8    15 1   
    18     9    19 1   
    19     9    22 1   
    20     9    25 1   
    21     9    35 1   
    22    10    27 1   
    23    10    29 ar  
    24    11    29 ar  
    25    11    30 ar  
    26    11    54 1   
    27    12    27 1   
    28    12    28 2   
    29    12    36 1   
    30    13    23 1   
    31    13    24 1   
    32    13    25 1   
    33    13    37 1   
    34    14    53 1   
    35    15    38 1   
    36    15    39 1   
    37    16    17 ar  
    38    17    40 1   
    39    18    19 1   
    40    19    20 1   
    41    19    41 1   
    42    20    21 1   
    43    20    42 1   
    44    20    43 1   
    45    21    25 1   
    46    21    44 1   
    47    21    45 1   
    48    22    23 1   
    49    23    27 1   
    50    23    46 1   
    51    24    47 1   
    52    25    26 1   
    53    26    48 1   
    54    28    29 1   
    55    28    49 1   
    56    30    31 ar  
    57    31    52 1   
    58    50    54 1   
    59    51    54 1   
@<TRIPOS>SUBSTRUCTURE
     1 WFM         1 TEMP              0 ****  ****    0 ROOT
