@<TRIPOS>MOLECULE
WFO
   38    40     1     0     0
SMALL
abcg2


@<TRIPOS>ATOM
      1 C10          7.6630     8.4780    18.1610 c3         1 WFO      -0.043300
      2 C11          6.6740     9.0790    17.1130 c          1 WFO       0.732000
      3 O12          5.2530     7.1070    18.5180 o          1 WFO      -0.494000
      4 C13          2.9160     6.4070    20.4120 ca         1 WFO      -0.011000
      5 O14          5.8790     9.9440    17.5520 o          1 WFO      -0.707500
      6 C16          2.6970     6.5170    23.5150 c3         1 WFO      -0.011800
      7 C17          8.5370     7.3020    17.7190 c3         1 WFO      -0.055400
      8 C18          2.3250     7.2280    19.4470 ca         1 WFO      -0.079000
      9 C19          2.4750     5.0880    20.5320 ca         1 WFO      -0.079000
     10 C20          7.8620     5.9550    17.4830 c3         1 WFO      -0.074100
     11 C21          1.3180     6.7410    18.6250 ca         1 WFO      -0.119000
     12 C22          1.4700     4.5960    19.7050 ca         1 WFO      -0.119000
     13 C23          0.8880     5.4210    18.7490 ca         1 WFO      -0.116000
     14 C1           5.2160     7.5130    20.8650 cc         1 WFO      -0.238600
     15 C2           5.9890     7.9890    21.9150 cd         1 WFO       0.111400
     16 C3           5.7610     7.5790    19.5270 c          1 WFO       0.594600
     17 N4           7.0040     8.2500    19.4670 n          1 WFO      -0.265300
     18 N5           7.2000     8.5880    21.8010 nd         1 WFO      -0.661100
     19 C6           3.9700     6.9380    21.3050 cc         1 WFO       0.023000
     20 S7           5.2150     7.7250    23.4410 ss         1 WFO       0.153000
     21 C8           3.8380     6.9800    22.6680 cd         1 WFO      -0.226300
     22 C9           7.6360     8.7010    20.5820 cc         1 WFO       0.517800
     23 O15          6.8270     8.7250    15.9230 o          1 WFO      -0.707500
     24 H25          8.3480     9.3080    18.3500 h1         1 WFO       0.028700
     25 H27          2.4880     7.2290    24.3160 hc         1 WFO       0.038033
     26 H29          1.8000     6.4050    22.9080 hc         1 WFO       0.038033
     27 H28          2.9110     5.5510    23.9780 hc         1 WFO       0.038033
     28 H31          9.0330     7.6250    16.8030 hc         1 WFO       0.024200
     29 H30          9.3230     7.1800    18.4720 hc         1 WFO       0.024200
     30 H32          2.6610     8.2510    19.3430 ha         1 WFO       0.121500
     31 H33          2.9320     4.4400    21.2710 ha         1 WFO       0.121500
     32 H36          8.6040     5.2290    17.1450 hc         1 WFO       0.030367
     33 H35          7.4070     5.5660    18.3950 hc         1 WFO       0.030367
     34 H34          7.0830     6.0300    16.7260 hc         1 WFO       0.030367
     35 H37          0.8690     7.3910    17.8840 ha         1 WFO       0.104500
     36 H38          1.1440     3.5680    19.8070 ha         1 WFO       0.104500
     37 H39          0.1050     5.0410    18.1050 ha         1 WFO       0.098000
     38 H24          8.5870     9.1890    20.4090 h5         1 WFO       0.040800
@<TRIPOS>BOND
     1     1     2 1   
     2     1     7 1   
     3     1    17 1   
     4     1    24 1   
     5     2     5 1   
     6     2    23 1   
     7     3    16 2   
     8     4     8 ar  
     9     4     9 ar  
    10     4    19 1   
    11     6    21 1   
    12     6    25 1   
    13     6    26 1   
    14     6    27 1   
    15     7    10 1   
    16     7    28 1   
    17     7    29 1   
    18     8    11 ar  
    19     8    30 1   
    20     9    12 ar  
    21     9    31 1   
    22    10    32 1   
    23    10    33 1   
    24    10    34 1   
    25    11    13 ar  
    26    11    35 1   
    27    12    13 ar  
    28    12    36 1   
    29    13    37 1   
    30    14    15 2   
    31    14    16 1   
    32    14    19 1   
    33    15    18 1   
    34    15    20 1   
    35    16    17 1   
    36    17    22 1   
    37    18    22 2   
    38    19    21 2   
    39    20    21 1   
    40    22    38 1   
@<TRIPOS>SUBSTRUCTURE
     1 WFO         1 TEMP              0 ****  ****    0 ROOT
