@<TRIPOS>MOLECULE
WFO
   38    40     1     0     0
SMALL
No Charge or Current Charge


@<TRIPOS>ATOM
      1 C10          7.5950     8.5490    18.0790 c3         1 WFO      -0.043300
      2 C11          6.5900     8.9720    16.9550 c          1 WFO       0.732000
      3 O12          5.2340     7.0330    18.5450 o          1 WFO      -0.494000
      4 C13          2.9330     6.3430    20.4460 ca         1 WFO      -0.011000
      5 O14          5.8380     9.9070    17.2010 o          1 WFO      -0.707500
      6 C16          2.6490     6.3960    23.4810 c3         1 WFO      -0.011800
      7 C17          8.6600     7.4880    17.6690 c3         1 WFO      -0.055400
      8 C18          2.4730     7.1600    19.3910 ca         1 WFO      -0.079000
      9 C19          2.2730     5.1170    20.6850 ca         1 WFO      -0.079000
     10 C20          8.1470     6.0360    17.5450 c3         1 WFO      -0.074100
     11 C21          1.3890     6.7600    18.5910 ca         1 WFO      -0.119000
     12 C22          1.1900     4.7150    19.8840 ca         1 WFO      -0.119000
     13 C23          0.7460     5.5360    18.8360 ca         1 WFO      -0.116000
     14 C1           5.2740     7.4300    20.8940 cc         1 WFO      -0.238600
     15 C2           5.9870     7.8960    21.9640 cd         1 WFO       0.111400
     16 C3           5.7770     7.5450    19.5140 c          1 WFO       0.594600
     17 N4           6.9790     8.2590    19.4180 n          1 WFO      -0.265300
     18 N5           7.1940     8.5660    21.8200 nd         1 WFO      -0.661100
     19 C6           4.0580     6.7750    21.2960 cc         1 WFO       0.023000
     20 S7           5.2250     7.5480    23.5180 ss         1 WFO       0.153000
     21 C8           3.8590     6.8020    22.6690 cd         1 WFO      -0.226300
     22 C9           7.6080     8.7260    20.5610 cc         1 WFO       0.517800
     23 O15          6.6440     8.4360    15.8560 o          1 WFO      -0.707500
     24 H25          8.1770     9.4680    18.2210 h1         1 WFO       0.028700
     25 H27          2.6360     6.9040    24.4520 hc         1 WFO       0.038033
     26 H29          1.7140     6.6550    22.9700 hc         1 WFO       0.038033
     27 H28          2.6460     5.3170    23.6780 hc         1 WFO       0.038033
     28 H31          9.1220     7.7870    16.7200 hc         1 WFO       0.024200
     29 H30          9.4660     7.5000    18.4130 hc         1 WFO       0.024200
     30 H32          2.9430     8.1220    19.2030 ha         1 WFO       0.121500
     31 H33          2.6180     4.4580    21.4770 ha         1 WFO       0.121500
     32 H36          8.9580     5.3770    17.2120 hc         1 WFO       0.030367
     33 H35          7.7880     5.6640    18.5110 hc         1 WFO       0.030367
     34 H34          7.3310     5.9630    16.8180 hc         1 WFO       0.030367
     35 H37          1.0440     7.4030    17.7840 ha         1 WFO       0.104500
     36 H38          0.6970     3.7640    20.0750 ha         1 WFO       0.104500
     37 H39         -0.0930     5.2260    18.2170 ha         1 WFO       0.098000
     38 H24          8.5360     9.2530    20.3720 h5         1 WFO       0.040800
@<TRIPOS>BOND
     1     1     2 1   
     2     1     7 1   
     3     1    17 1   
     4     1    24 1   
     5     2     5 1   
     6     2    23 1   
     7     3    16 2   
     8     4     8 ar  
     9     4     9 ar  
    10     4    19 1   
    11     6    21 1   
    12     6    25 1   
    13     6    26 1   
    14     6    27 1   
    15     7    10 1   
    16     7    28 1   
    17     7    29 1   
    18     8    11 ar  
    19     8    30 1   
    20     9    12 ar  
    21     9    31 1   
    22    10    32 1   
    23    10    33 1   
    24    10    34 1   
    25    11    13 ar  
    26    11    35 1   
    27    12    13 ar  
    28    12    36 1   
    29    13    37 1   
    30    14    15 2   
    31    14    16 1   
    32    14    19 1   
    33    15    18 1   
    34    15    20 1   
    35    16    17 1   
    36    17    22 1   
    37    18    22 2   
    38    19    21 2   
    39    20    21 1   
    40    22    38 1   
@<TRIPOS>SUBSTRUCTURE
     1 WFO         1 TEMP              0 ****  ****    0 ROOT
