@<TRIPOS>MOLECULE
WFP
   22    22     1     0     0
SMALL
bcc


@<TRIPOS>ATOM
      1 C          -22.5530   -32.1900     5.6300 c          1 WFP       0.933600
      2 N          -21.5880   -30.1700     6.6760 n8         1 WFP      -0.897800
      3 O          -23.1950   -33.2430     5.8050 o          1 WFP      -0.830800
      4 F1         -22.1420   -28.2190    11.3850 f          1 WFP      -0.157400
      5 F2         -19.3980   -31.9850    11.7100 f          1 WFP      -0.157400
      6 CA         -21.8580   -31.5830     6.8790 c3         1 WFP       0.025500
      7 CB         -22.6940   -31.7920     8.1470 c3         1 WFP      -0.023100
      8 CG         -22.0340   -31.2080     9.3610 ca         1 WFP       0.010700
      9 CZ         -20.7420   -30.0790    11.5900 ca         1 WFP      -0.248000
     10 CD1        -22.4100   -29.9530     9.8330 ca         1 WFP      -0.187500
     11 CD2        -21.0060   -31.8980    10.0050 ca         1 WFP      -0.187500
     12 CE1        -21.7650   -29.4240    10.9330 ca         1 WFP       0.146900
     13 CE2        -20.3870   -31.3200    11.0950 ca         1 WFP       0.146900
     14 OXT        -22.3750   -31.5910     4.5520 o          1 WFP      -0.830800
     15 H          -20.7950   -29.8780     7.2310 hn         1 WFP       0.333300
     16 H2         -21.3360   -30.0420     5.7050 hn         1 WFP       0.333300
     17 HA         -20.9290   -32.1670     7.0090 h1         1 WFP      -0.001300
     18 HB2        -23.6750   -31.3300     8.0070 hc         1 WFP       0.063200
     19 HB3        -22.8550   -32.8600     8.2930 hc         1 WFP       0.063200
     20 HZ         -20.2470   -29.6470    12.4500 ha         1 WFP       0.149000
     21 HD1        -23.2040   -29.3980     9.3500 ha         1 WFP       0.158500
     22 HD2        -20.6970   -32.8770     9.6590 ha         1 WFP       0.158500
@<TRIPOS>BOND
     1     1     3 1   
     2     1     6 1   
     3     1    14 1   
     4     2     6 1   
     5     2    15 1   
     6     2    16 1   
     7     4    12 1   
     8     5    13 1   
     9     6     7 1   
    10     6    17 1   
    11     7     8 1   
    12     7    18 1   
    13     7    19 1   
    14     8    10 ar  
    15     8    11 ar  
    16     9    12 ar  
    17     9    13 ar  
    18     9    20 1   
    19    10    12 ar  
    20    10    21 1   
    21    11    13 ar  
    22    11    22 1   
@<TRIPOS>SUBSTRUCTURE
     1 WFP         1 TEMP              0 ****  ****    0 ROOT
