@<TRIPOS>MOLECULE
WFP
   22    22     1     0     0
SMALL
No Charge or Current Charge


@<TRIPOS>ATOM
      1 C          -22.5730   -32.3760     5.5920 c          1 WFP       0.933600
      2 N          -21.6430   -30.0860     6.5500 n8         1 WFP      -0.897800
      3 O          -23.7870   -32.5680     5.5650 o          1 WFP      -0.830800
      4 F1         -22.3030   -28.3540    11.6940 f          1 WFP      -0.157400
      5 F2         -19.1420   -31.9050    11.4920 f          1 WFP      -0.157400
      6 CA         -21.9280   -31.5500     6.7970 c3         1 WFP       0.025500
      7 CB         -22.7290   -31.7260     8.1170 c3         1 WFP      -0.023100
      8 CG         -22.0190   -31.1570     9.3430 ca         1 WFP       0.010700
      9 CZ         -20.7070   -30.1170    11.6180 ca         1 WFP      -0.248000
     10 CD1        -22.4960   -29.9890     9.9710 ca         1 WFP      -0.187500
     11 CD2        -20.8810   -31.8010     9.8680 ca         1 WFP      -0.187500
     12 CE1        -21.8400   -29.4750    11.1000 ca         1 WFP       0.146900
     13 CE2        -20.2320   -31.2800    10.9980 ca         1 WFP       0.146900
     14 OXT        -21.8260   -32.8070     4.7170 o          1 WFP      -0.830800
     15 H          -21.1680   -29.6950     7.3700 hn         1 WFP       0.333300
     16 H2         -20.9600   -29.9990     5.7890 hn         1 WFP       0.333300
     17 HA         -20.9450   -32.0070     6.9720 h1         1 WFP      -0.001300
     18 HB2        -23.7190   -31.2680     8.0020 hc         1 WFP       0.063200
     19 HB3        -22.9110   -32.7960     8.2760 hc         1 WFP       0.063200
     20 HZ         -20.2020   -29.7170    12.4920 ha         1 WFP       0.149000
     21 HD1        -23.3730   -29.4760     9.5830 ha         1 WFP       0.158500
     22 HD2        -20.4990   -32.7050     9.4010 ha         1 WFP       0.158500
@<TRIPOS>BOND
     1     1     3 1   
     2     1     6 1   
     3     1    14 1   
     4     2     6 1   
     5     2    15 1   
     6     2    16 1   
     7     4    12 1   
     8     5    13 1   
     9     6     7 1   
    10     6    17 1   
    11     7     8 1   
    12     7    18 1   
    13     7    19 1   
    14     8    10 ar  
    15     8    11 ar  
    16     9    12 ar  
    17     9    13 ar  
    18     9    20 1   
    19    10    12 ar  
    20    10    21 1   
    21    11    13 ar  
    22    11    22 1   
@<TRIPOS>SUBSTRUCTURE
     1 WFP         1 TEMP              0 ****  ****    0 ROOT
