@<TRIPOS>MOLECULE
WFR
   67    69     1     0     0
SMALL
No Charge or Current Charge


@<TRIPOS>ATOM
      1 C02        147.2070   160.7270   149.0780 c5         1 WFR       0.126300
      2 C03        147.0010   159.4800   149.9790 c5         1 WFR       0.151300
      3 C04        145.4460   159.2820   149.8410 c5         1 WFR      -0.029900
      4 C05        145.2170   159.7830   148.3470 c5         1 WFR       0.340700
      5 C07        148.6920   161.0580   148.7450 c3         1 WFR       0.244600
      6 C09        144.6860   160.1640   150.7700 c1         1 WFR      -0.155100
      7 C10        145.0020   157.8290   150.1920 c3         1 WFR      -0.077100
      8 C11        143.4500   158.4690   147.2020 c          1 WFR       0.618000
      9 C13        143.9650   156.5410   145.7920 c          1 WFR       0.588200
     10 C14        145.3740   156.7770   146.0910 cc         1 WFR      -0.384200
     11 C15        145.7820   157.8080   146.9050 cd         1 WFR       0.016600
     12 C23        150.1090   165.1410   147.0100 c3         1 WFR       0.218500
     13 C24        151.1270   164.6100   148.0870 c          1 WFR       0.583100
     14 C25        149.5530   166.5440   147.3450 c3         1 WFR      -0.105100
     15 C28        152.8920   162.9700   148.4200 c3         1 WFR       0.177300
     16 C29        152.2010   162.0170   149.4180 c3         1 WFR      -0.103600
     17 C30        153.8560   162.2290   147.4760 c3         1 WFR      -0.103600
     18 C31        145.4000   163.1920   147.3840 ca         1 WFR       0.156100
     19 C32        144.4710   162.7470   146.4290 ca         1 WFR      -0.133500
     20 C33        143.1110   162.6170   146.7570 ca         1 WFR      -0.089500
     21 C34        142.6710   162.9400   148.0510 ca         1 WFR      -0.124000
     22 C35        143.5900   163.3960   149.0110 ca         1 WFR      -0.089500
     23 C36        144.9520   163.5220   148.6830 ca         1 WFR      -0.133500
     24 C37        144.1100   160.8960   151.5430 c1         1 WFR      -0.192000
     25 N06        144.8210   158.6470   147.4710 n          1 WFR      -0.325000
     26 N12        143.1290   157.4290   146.3870 ns         1 WFR      -0.468500
     27 N22        148.9750   164.2160   146.7040 n7         1 WFR      -1.019500
     28 O01        146.4770   160.3360   147.9020 os         1 WFR      -0.445000
     29 O08        147.4410   159.6740   151.3290 oh         1 WFR      -0.687000
     30 O16        143.5570   155.6430   145.0780 o          1 WFR      -0.527000
     31 O17        142.5780   159.1830   147.6660 o          1 WFR      -0.557000
     32 O18        148.8290   162.0950   147.7430 os         1 WFR      -0.629400
     33 O20        146.7180   163.2500   146.9940 os         1 WFR      -0.508500
     34 O21        148.0180   164.2170   149.1370 o          1 WFR      -0.596000
     35 O26        151.2900   165.1060   149.1960 o          1 WFR      -0.481000
     36 O27        151.8860   163.5770   147.5860 os         1 WFR      -0.471100
     37 P19        148.0660   163.4980   147.8410 p5         1 WFR       1.411100
     38 H1         146.7340   161.6070   149.5320 h1         1 WFR       0.093700
     39 H2         147.5330   158.6240   149.5400 h1         1 WFR       0.038700
     40 H3         144.4300   160.5480   148.2940 h2         1 WFR       0.117700
     41 H4         149.1800   160.1390   148.3950 h1         1 WFR       0.066200
     42 H5         149.1960   161.3570   149.6740 h1         1 WFR       0.066200
     43 H6         145.2020   157.5910   151.2440 hc         1 WFR       0.050367
     44 H7         143.9290   157.6790   150.0190 hc         1 WFR       0.050367
     45 H8         145.5420   157.0850   149.5940 hc         1 WFR       0.050367
     46 H9         146.0750   156.0910   145.6290 ha         1 WFR       0.223000
     47 H10        146.8150   158.0330   147.1590 h4         1 WFR       0.213000
     48 H11        150.7070   165.2580   146.0950 h1         1 WFR       0.064700
     49 H12        148.8840   166.8930   146.5490 hc         1 WFR       0.060033
     50 H13        148.9960   166.5430   148.2890 hc         1 WFR       0.060033
     51 H14        150.3730   167.2660   147.4370 hc         1 WFR       0.060033
     52 H15        153.4640   163.7320   148.9690 h1         1 WFR       0.064700
     53 H16        152.9490   161.5200   150.0480 hc         1 WFR       0.048700
     54 H17        151.5140   162.5590   150.0780 hc         1 WFR       0.048700
     55 H18        151.6380   161.2420   148.8850 hc         1 WFR       0.048700
     56 H19        154.6510   161.7370   148.0480 hc         1 WFR       0.048700
     57 H20        153.3250   161.4650   146.8960 hc         1 WFR       0.048700
     58 H21        154.3240   162.9320   146.7770 hc         1 WFR       0.048700
     59 H22        144.8140   162.4870   145.4300 ha         1 WFR       0.133500
     60 H23        142.4020   162.2620   146.0130 ha         1 WFR       0.117000
     61 H24        141.6190   162.8380   148.3090 ha         1 WFR       0.120000
     62 H25        143.2460   163.6490   150.0110 ha         1 WFR       0.117000
     63 H26        145.6290   163.8760   149.4510 ha         1 WFR       0.133500
     64 H27        143.5860   161.5370   152.2230 ha         1 WFR       0.261000
     65 H28        142.1470   157.3030   146.2030 hn         1 WFR       0.344500
     66 H29        149.3500   163.2950   146.4550 hn         1 WFR       0.492000
     67 H30        146.6390   159.9210   151.8470 ho         1 WFR       0.514000
@<TRIPOS>BOND
     1     1     2 1   
     2     1     5 1   
     3     1    28 1   
     4     1    38 1   
     5     2     3 1   
     6     2    29 1   
     7     2    39 1   
     8     3     4 1   
     9     3     6 1   
    10     3     7 1   
    11     4    25 1   
    12     4    28 1   
    13     4    40 1   
    14     5    32 1   
    15     5    41 1   
    16     5    42 1   
    17     6    24 3   
    18     7    43 1   
    19     7    44 1   
    20     7    45 1   
    21     8    25 1   
    22     8    26 1   
    23     8    31 2   
    24     9    10 1   
    25     9    26 1   
    26     9    30 2   
    27    10    11 2   
    28    10    46 1   
    29    11    25 1   
    30    11    47 1   
    31    12    13 1   
    32    12    14 1   
    33    12    27 1   
    34    12    48 1   
    35    13    35 2   
    36    13    36 1   
    37    14    49 1   
    38    14    50 1   
    39    14    51 1   
    40    15    16 1   
    41    15    17 1   
    42    15    36 1   
    43    15    52 1   
    44    16    53 1   
    45    16    54 1   
    46    16    55 1   
    47    17    56 1   
    48    17    57 1   
    49    17    58 1   
    50    18    19 ar  
    51    18    23 ar  
    52    18    33 1   
    53    19    20 ar  
    54    19    59 1   
    55    20    21 ar  
    56    20    60 1   
    57    21    22 ar  
    58    21    61 1   
    59    22    23 ar  
    60    22    62 1   
    61    23    63 1   
    62    24    64 1   
    63    26    65 1   
    64    27    37 1   
    65    27    66 1   
    66    29    67 1   
    67    32    37 1   
    68    33    37 1   
    69    34    37 2   
@<TRIPOS>SUBSTRUCTURE
     1 WFR         1 TEMP              0 ****  ****    0 ROOT
