@<TRIPOS>MOLECULE
WFR
   67    69     1     0     0
SMALL
abcg2


@<TRIPOS>ATOM
      1 C02        146.9220   160.9360   148.7920 c5         1 WFR       0.126300
      2 C03        147.0540   159.8020   149.7950 c5         1 WFR       0.151300
      3 C04        145.5720   159.3330   149.9550 c5         1 WFR      -0.029900
      4 C05        145.0020   159.6310   148.5210 c5         1 WFR       0.340700
      5 C07        148.1870   161.2490   148.0380 c3         1 WFR       0.244600
      6 C09        144.8700   160.1950   150.9030 c1         1 WFR      -0.155100
      7 C10        145.4750   157.8690   150.3950 c3         1 WFR      -0.077100
      8 C11        143.5410   157.8780   147.6560 c          1 WFR       0.618000
      9 C13        144.4090   156.1770   146.0640 c          1 WFR       0.588200
     10 C14        145.6930   156.8250   146.1610 cc         1 WFR      -0.384200
     11 C15        145.8380   157.9110   146.9440 cd         1 WFR       0.016600
     12 C23        150.4050   165.3260   147.0000 c3         1 WFR       0.218500
     13 C24        151.3480   164.5710   147.9420 c          1 WFR       0.583100
     14 C25        150.0140   166.6870   147.5710 c3         1 WFR      -0.105100
     15 C28        152.1850   162.4210   148.5990 c3         1 WFR       0.177300
     16 C29        151.6850   162.2920   150.0260 c3         1 WFR      -0.103600
     17 C30        152.2670   161.0970   147.8680 c3         1 WFR      -0.103600
     18 C31        145.5250   163.9090   147.2080 ca         1 WFR       0.156100
     19 C32        144.8090   163.3670   146.1510 ca         1 WFR      -0.133500
     20 C33        143.5600   162.8070   146.3960 ca         1 WFR      -0.089500
     21 C34        143.0420   162.7850   147.6880 ca         1 WFR      -0.124000
     22 C35        143.7700   163.3410   148.7340 ca         1 WFR      -0.089500
     23 C36        145.0160   163.9150   148.4990 ca         1 WFR      -0.133500
     24 C37        144.2780   160.9070   151.6680 c1         1 WFR      -0.192000
     25 N06        144.8080   158.4440   147.6740 n          1 WFR      -0.325000
     26 N12        143.4170   156.7820   146.8360 ns         1 WFR      -0.468500
     27 N22        149.2580   164.5450   146.5530 n7         1 WFR      -1.019500
     28 O01        145.9190   160.4820   147.8760 os         1 WFR      -0.445000
     29 O08        147.6790   160.2610   150.9690 oh         1 WFR      -0.687000
     30 O16        144.1440   155.1890   145.3890 o          1 WFR      -0.527000
     31 O17        142.6090   158.3100   148.3160 o          1 WFR      -0.557000
     32 O18        147.9850   162.3400   147.1190 os         1 WFR      -0.629400
     33 O20        146.7720   164.4750   146.9340 os         1 WFR      -0.508500
     34 O21        148.3830   164.1100   148.9610 o          1 WFR      -0.596000
     35 O26        152.1350   165.1400   148.6670 o          1 WFR      -0.481000
     36 O27        151.2620   163.2500   147.8180 os         1 WFR      -0.471100
     37 P19        148.1400   163.8700   147.5280 p5         1 WFR       1.411100
     38 H1         146.5680   161.8320   149.3090 h1         1 WFR       0.093700
     39 H2         147.6220   158.9780   149.3530 h1         1 WFR       0.038700
     40 H3         144.0270   160.1020   148.5910 h2         1 WFR       0.117700
     41 H4         148.4940   160.4000   147.4300 h1         1 WFR       0.066200
     42 H5         148.9760   161.4930   148.7450 h1         1 WFR       0.066200
     43 H6         145.9170   157.7620   151.3860 hc         1 WFR       0.050367
     44 H7         144.4360   157.5440   150.4480 hc         1 WFR       0.050367
     45 H8         146.0170   157.2230   149.7050 hc         1 WFR       0.050367
     46 H9         146.5220   156.4310   145.5950 ha         1 WFR       0.223000
     47 H10        146.7770   158.4330   147.0300 h4         1 WFR       0.213000
     48 H11        151.0120   165.4910   146.1050 h1         1 WFR       0.064700
     49 H12        149.4320   167.2300   146.8270 hc         1 WFR       0.060033
     50 H13        149.4100   166.5650   148.4700 hc         1 WFR       0.060033
     51 H14        150.9000   167.2680   147.8200 hc         1 WFR       0.060033
     52 H15        153.1510   162.9250   148.5860 h1         1 WFR       0.064700
     53 H16        152.3950   161.6960   150.6020 hc         1 WFR       0.048700
     54 H17        151.5900   163.2680   150.5000 hc         1 WFR       0.048700
     55 H18        150.7170   161.7900   150.0530 hc         1 WFR       0.048700
     56 H19        152.9770   160.4440   148.3780 hc         1 WFR       0.048700
     57 H20        151.2940   160.6030   147.8510 hc         1 WFR       0.048700
     58 H21        152.6070   161.2420   146.8410 hc         1 WFR       0.048700
     59 H22        145.2370   163.3770   145.1570 ha         1 WFR       0.133500
     60 H23        142.9980   162.3770   145.5770 ha         1 WFR       0.117000
     61 H24        142.0760   162.3370   147.8770 ha         1 WFR       0.120000
     62 H25        143.3740   163.3250   149.7410 ha         1 WFR       0.117000
     63 H26        145.5920   164.3490   149.3040 ha         1 WFR       0.133500
     64 H27        143.7490   161.5380   152.3440 ha         1 WFR       0.261000
     65 H28        142.4960   156.3610   146.8120 hn         1 WFR       0.344500
     66 H29        149.1990   164.3640   145.5630 hn         1 WFR       0.492000
     67 H30        148.0010   159.5030   151.4730 ho         1 WFR       0.514000
@<TRIPOS>BOND
     1     1     2 1   
     2     1     5 1   
     3     1    28 1   
     4     1    38 1   
     5     2     3 1   
     6     2    29 1   
     7     2    39 1   
     8     3     4 1   
     9     3     6 1   
    10     3     7 1   
    11     4    25 1   
    12     4    28 1   
    13     4    40 1   
    14     5    32 1   
    15     5    41 1   
    16     5    42 1   
    17     6    24 3   
    18     7    43 1   
    19     7    44 1   
    20     7    45 1   
    21     8    25 1   
    22     8    26 1   
    23     8    31 2   
    24     9    10 1   
    25     9    26 1   
    26     9    30 2   
    27    10    11 2   
    28    10    46 1   
    29    11    25 1   
    30    11    47 1   
    31    12    13 1   
    32    12    14 1   
    33    12    27 1   
    34    12    48 1   
    35    13    35 2   
    36    13    36 1   
    37    14    49 1   
    38    14    50 1   
    39    14    51 1   
    40    15    16 1   
    41    15    17 1   
    42    15    36 1   
    43    15    52 1   
    44    16    53 1   
    45    16    54 1   
    46    16    55 1   
    47    17    56 1   
    48    17    57 1   
    49    17    58 1   
    50    18    19 ar  
    51    18    23 ar  
    52    18    33 1   
    53    19    20 ar  
    54    19    59 1   
    55    20    21 ar  
    56    20    60 1   
    57    21    22 ar  
    58    21    61 1   
    59    22    23 ar  
    60    22    62 1   
    61    23    63 1   
    62    24    64 1   
    63    26    65 1   
    64    27    37 1   
    65    27    66 1   
    66    29    67 1   
    67    32    37 1   
    68    33    37 1   
    69    34    37 2   
@<TRIPOS>SUBSTRUCTURE
     1 WFR         1 TEMP              0 ****  ****    0 ROOT
