@<TRIPOS>MOLECULE
WFS
   55    60     1     0     0
SMALL
abcg2


@<TRIPOS>ATOM
      1 N1          18.6260   -44.5390   -11.2110 nv         1 WFS      -1.060900
      2 N3          13.4010   -34.5590    -3.1320 nb         1 WFS      -0.210000
      3 C4          19.1400   -39.9390    -5.6150 c5         1 WFS       0.158300
      4 C5          20.7560   -40.8690    -7.1120 ca         1 WFS       0.177100
      5 C6          22.1340   -40.9780    -7.4260 ca         1 WFS      -0.151000
      6 C7          22.5390   -41.7820    -8.4510 ca         1 WFS      -0.036000
      7 C8          21.6000   -42.5110    -9.2100 ca         1 WFS      -0.169000
      8 C10         19.8190   -41.5710    -7.8350 ca         1 WFS      -0.218000
      9 C13         21.9590   -43.3610   -10.2770 ca         1 WFS       0.016000
     10 C15         17.6680   -39.0280    -2.7640 c5         1 WFS       0.085300
     11 C17         13.8360   -36.7330    -3.9120 ca         1 WFS      -0.194800
     12 C20         12.9510   -35.6790    -3.6890 ca         1 WFS       0.178300
     13 C21         14.6910   -34.4780    -2.8010 ca         1 WFS       0.138900
     14 C22         11.5080   -35.7730    -4.0590 c3         1 WFS      -0.150400
     15 C12         20.9910   -44.0320   -10.9580 ca         1 WFS      -0.139900
     16 C11         19.6160   -43.8620   -10.5870 ca         1 WFS       0.655900
     17 N           19.2800   -43.0700    -9.5940 nb         1 WFS      -0.779000
     18 C9          20.2260   -42.4040    -8.9010 ca         1 WFS       0.378000
     19 O           20.4760   -40.0370    -6.0940 os         1 WFS      -0.339100
     20 C           18.7850   -41.1420    -4.7370 c5         1 WFS      -0.109400
     21 C3          19.1130   -38.7380    -4.6630 c5         1 WFS       0.166300
     22 O1          17.9120   -38.0010    -4.8320 os         1 WFS      -0.452000
     23 C14         17.2930   -37.8010    -3.5890 c5         1 WFS       0.315300
     24 O2          17.5550   -38.7470    -1.3990 oh         1 WFS      -0.698000
     25 C2          19.1160   -39.3060    -3.2260 c5         1 WFS       0.122000
     26 O3          20.0230   -38.6080    -2.4210 oh         1 WFS      -0.694000
     27 C1          19.4050   -40.8000    -3.3840 c5         1 WFS      -0.094400
     28 N2          15.8860   -37.6330    -3.8000 na         1 WFS      -0.194400
     29 C19         15.0380   -38.5520    -4.3880 cc         1 WFS      -0.152100
     30 C18         13.7790   -38.0460    -4.4700 cd         1 WFS      -0.210200
     31 N4          15.6210   -35.4020    -2.9570 nb         1 WFS      -0.187000
     32 C16         15.1660   -36.5140    -3.5140 ca         1 WFS       0.146500
     33 H1          17.6860   -44.2480   -11.0000 hn         1 WFS       0.488000
     34 H2          18.7600   -44.9140   -12.1340 hn         1 WFS       0.488000
     35 H3          18.4460   -39.7870    -6.4470 h1         1 WFS       0.080700
     36 H5          23.5930   -41.8670    -8.6900 ha         1 WFS       0.118000
     37 H6          18.7610   -41.5200    -7.6210 ha         1 WFS       0.134000
     38 H7          23.0050   -43.4720   -10.5380 ha         1 WFS       0.130000
     39 H8          17.0230   -39.8670    -3.0470 h1         1 WFS       0.055700
     40 H9          15.0100   -33.5430    -2.3520 h5         1 WFS       0.049100
     41 H10         10.9830   -34.8510    -3.8200 hc         1 WFS       0.056367
     42 H11         11.3960   -35.9730    -5.1260 hc         1 WFS       0.056367
     43 H12         11.0280   -36.5970    -3.5300 hc         1 WFS       0.056367
     44 H13         17.6970   -41.2170    -4.6640 hc         1 WFS       0.060700
     45 H14         19.1300   -42.0910    -5.1470 hc         1 WFS       0.060700
     46 H15         19.9770   -38.0870    -4.8330 h1         1 WFS       0.108700
     47 H16         17.6480   -36.8890    -3.0940 h2         1 WFS       0.118700
     48 H17         17.3730   -39.5630    -0.9220 ho         1 WFS       0.517000
     49 H18         19.6700   -38.5930    -1.5220 ho         1 WFS       0.525000
     50 H19         19.0000   -41.3960    -2.5640 hc         1 WFS       0.064200
     51 H20         20.4850   -40.9640    -3.4060 hc         1 WFS       0.064200
     52 H21         15.4080   -39.5110    -4.7150 h4         1 WFS       0.216000
     53 H22         12.9210   -38.5510    -4.8840 ha         1 WFS       0.210000
     54 H4          22.8530   -40.4180    -6.8430 ha         1 WFS       0.133000
     55 BR          21.4680   -45.1910   -12.3680 br         1 WFS      -0.092100
@<TRIPOS>BOND
     1     1    16 1   
     2     1    33 1   
     3     1    34 1   
     4     2    12 ar  
     5     2    13 ar  
     6     3    19 1   
     7     3    20 1   
     8     3    21 1   
     9     3    35 1   
    10     4     5 ar  
    11     4     8 ar  
    12     4    19 1   
    13     5     6 ar  
    14     5    54 1   
    15     6     7 ar  
    16     6    36 1   
    17     7     9 ar  
    18     7    18 ar  
    19     8    18 ar  
    20     8    37 1   
    21     9    15 ar  
    22     9    38 1   
    23    10    23 1   
    24    10    24 1   
    25    10    25 1   
    26    10    39 1   
    27    11    12 ar  
    28    11    30 1   
    29    11    32 ar  
    30    12    14 1   
    31    13    31 ar  
    32    13    40 1   
    33    14    41 1   
    34    14    42 1   
    35    14    43 1   
    36    15    16 ar  
    37    15    55 1   
    38    16    17 ar  
    39    17    18 ar  
    40    20    27 1   
    41    20    44 1   
    42    20    45 1   
    43    21    22 1   
    44    21    25 1   
    45    21    46 1   
    46    22    23 1   
    47    23    28 1   
    48    23    47 1   
    49    24    48 1   
    50    25    26 1   
    51    25    27 1   
    52    26    49 1   
    53    27    50 1   
    54    27    51 1   
    55    28    29 1   
    56    28    32 1   
    57    29    30 2   
    58    29    52 1   
    59    30    53 1   
    60    31    32 ar  
@<TRIPOS>SUBSTRUCTURE
     1 WFS         1 TEMP              0 ****  ****    0 ROOT
