@<TRIPOS>MOLECULE
WFS
   55    60     1     0     0
SMALL
No Charge or Current Charge


@<TRIPOS>ATOM
      1 N1          18.6520   -44.4840   -11.0950 nv         1 WFS      -1.060900
      2 N3          13.5640   -34.2630    -3.6940 nb         1 WFS      -0.210000
      3 C4          19.2340   -39.9360    -5.6110 c5         1 WFS       0.158300
      4 C5          20.8660   -40.7510    -7.1770 ca         1 WFS       0.177100
      5 C6          22.2120   -40.8410    -7.5650 ca         1 WFS      -0.151000
      6 C7          22.6040   -41.6760    -8.6200 ca         1 WFS      -0.036000
      7 C8          21.6400   -42.4340    -9.3040 ca         1 WFS      -0.169000
      8 C10         19.8990   -41.5140    -7.8780 ca         1 WFS      -0.218000
      9 C13         22.0260   -43.2750   -10.3650 ca         1 WFS       0.016000
     10 C15         17.5650   -39.4260    -2.7970 c5         1 WFS       0.085300
     11 C17         13.8260   -36.6220    -3.7840 ca         1 WFS      -0.194800
     12 C20         13.0020   -35.4870    -3.8150 ca         1 WFS       0.178300
     13 C21         14.9140   -34.2250    -3.5500 ca         1 WFS       0.138900
     14 C22         11.4960   -35.5750    -3.9780 c3         1 WFS      -0.150400
     15 C12         21.0280   -44.0090   -11.0180 ca         1 WFS      -0.139900
     16 C11         19.7070   -43.8600   -10.5670 ca         1 WFS       0.655900
     17 N           19.3210   -43.0710    -9.5750 nb         1 WFS      -0.779000
     18 C9          20.2740   -42.3570    -8.9360 ca         1 WFS       0.378000
     19 O           20.5980   -39.8820    -6.1210 os         1 WFS      -0.339100
     20 C           19.0390   -41.2440    -4.7690 c5         1 WFS      -0.109400
     21 C3          19.1040   -38.7600    -4.5800 c5         1 WFS       0.166300
     22 O1          17.8080   -38.1270    -4.7580 os         1 WFS      -0.452000
     23 C14         17.1650   -38.0690    -3.4660 c5         1 WFS       0.315300
     24 O2          17.3740   -39.4770    -1.3660 oh         1 WFS      -0.698000
     25 C2          19.0870   -39.4150    -3.1580 c5         1 WFS       0.122000
     26 O3          19.8100   -38.6890    -2.1640 oh         1 WFS      -0.694000
     27 C1          19.6150   -40.8630    -3.3750 c5         1 WFS      -0.094400
     28 N2          15.7340   -37.7820    -3.6400 na         1 WFS      -0.194400
     29 C19         14.7150   -38.7550    -3.7980 cc         1 WFS      -0.152100
     30 C18         13.5420   -38.0270    -3.8850 cd         1 WFS      -0.210200
     31 N4          15.7590   -35.2850    -3.5140 nb         1 WFS      -0.187000
     32 C16         15.1850   -36.5000    -3.6360 ca         1 WFS       0.146500
     33 H1          17.7650   -44.0690   -10.8420 hn         1 WFS       0.488000
     34 H2          18.7430   -44.8060   -12.0520 hn         1 WFS       0.488000
     35 H3          18.5130   -39.8100    -6.4290 h1         1 WFS       0.080700
     36 H5          23.6540   -41.7320    -8.9020 ha         1 WFS       0.118000
     37 H6          18.8460   -41.4830    -7.6290 ha         1 WFS       0.134000
     38 H7          23.0660   -43.3550   -10.6740 ha         1 WFS       0.130000
     39 H8          17.0330   -40.2560    -3.2780 h1         1 WFS       0.055700
     40 H9          15.3650   -33.2400    -3.4530 h5         1 WFS       0.049100
     41 H10         11.0270   -34.5830    -3.9760 hc         1 WFS       0.056367
     42 H11         11.2360   -36.0650    -4.9230 hc         1 WFS       0.056367
     43 H12         11.0500   -36.1570    -3.1630 hc         1 WFS       0.056367
     44 H13         17.9820   -41.5250    -4.7200 hc         1 WFS       0.060700
     45 H14         19.5590   -42.1100    -5.1920 hc         1 WFS       0.060700
     46 H15         19.9030   -38.0140    -4.6900 h1         1 WFS       0.108700
     47 H16         17.5810   -37.2350    -2.8850 h2         1 WFS       0.118700
     48 H17         16.4020   -39.5340    -1.1970 ho         1 WFS       0.517000
     49 H18         19.2430   -38.7990    -1.3590 ho         1 WFS       0.525000
     50 H19         19.2960   -41.5540    -2.5860 hc         1 WFS       0.064200
     51 H20         20.7120   -40.8810    -3.3910 hc         1 WFS       0.064200
     52 H21         14.8940   -39.8260    -3.8440 h4         1 WFS       0.216000
     53 H22         12.5530   -38.4640    -4.0170 ha         1 WFS       0.210000
     54 H4          22.9600   -40.2550    -7.0370 ha         1 WFS       0.133000
     55 Br          21.4830   -45.1720   -12.4780 br         1 WFS      -0.092100
@<TRIPOS>BOND
     1     1    16 1   
     2     1    33 1   
     3     1    34 1   
     4     2    12 ar  
     5     2    13 ar  
     6     3    19 1   
     7     3    20 1   
     8     3    21 1   
     9     3    35 1   
    10     4     5 ar  
    11     4     8 ar  
    12     4    19 1   
    13     5     6 ar  
    14     5    54 1   
    15     6     7 ar  
    16     6    36 1   
    17     7     9 ar  
    18     7    18 ar  
    19     8    18 ar  
    20     8    37 1   
    21     9    15 ar  
    22     9    38 1   
    23    10    23 1   
    24    10    24 1   
    25    10    25 1   
    26    10    39 1   
    27    11    12 ar  
    28    11    30 1   
    29    11    32 ar  
    30    12    14 1   
    31    13    31 ar  
    32    13    40 1   
    33    14    41 1   
    34    14    42 1   
    35    14    43 1   
    36    15    16 ar  
    37    15    55 1   
    38    16    17 ar  
    39    17    18 ar  
    40    20    27 1   
    41    20    44 1   
    42    20    45 1   
    43    21    22 1   
    44    21    25 1   
    45    21    46 1   
    46    22    23 1   
    47    23    28 1   
    48    23    47 1   
    49    24    48 1   
    50    25    26 1   
    51    25    27 1   
    52    26    49 1   
    53    27    50 1   
    54    27    51 1   
    55    28    29 1   
    56    28    32 1   
    57    29    30 2   
    58    29    52 1   
    59    30    53 1   
    60    31    32 ar  
@<TRIPOS>SUBSTRUCTURE
     1 WFS         1 TEMP              0 ****  ****    0 ROOT
