@<TRIPOS>MOLECULE
WFT
   61    66     1     0     0
SMALL
No Charge or Current Charge


@<TRIPOS>ATOM
      1 N3          29.7940   -38.6590   -24.7840 nb         1 WFT      -0.654000
      2 C2          30.4140   -24.6420   -27.5810 c6         1 WFT       0.174300
      3 C5          28.4190   -22.7360   -25.7790 c5         1 WFT      -0.062400
      4 C4          28.6150   -22.7470   -27.3310 c5         1 WFT      -0.062400
      5 C6          29.8640   -26.8140   -26.3710 ca         1 WFT       0.313000
      6 C7          30.6530   -27.5960   -27.2370 ca         1 WFT      -0.180000
      7 N           29.9650   -25.4000   -26.3670 nh         1 WFT      -0.796400
      8 C           29.8330   -23.0920   -25.2290 c5         1 WFT       0.141000
      9 O           26.1360   -33.6740   -25.5410 o          1 WFT      -0.646100
     10 C1          30.0850   -24.6380   -25.0790 c6         1 WFT       0.174300
     11 C10         28.8420   -28.8670   -25.5000 ca         1 WFT      -0.036300
     12 C11         28.9590   -27.4640   -25.5110 ca         1 WFT      -0.168000
     13 C12         27.8290   -29.5220   -24.5550 c6         1 WFT      -0.031100
     14 C13         28.0490   -31.0410   -24.3740 c6         1 WFT      -0.093400
     15 C14         28.2600   -31.7290   -25.7410 c6         1 WFT       0.111700
     16 C15         29.5500   -31.1720   -26.3920 c6         1 WFT      -0.031100
     17 C16         27.2990   -34.0540   -25.4800 c          1 WFT       0.658300
     18 C17         27.7280   -35.4580   -25.2960 cc         1 WFT      -0.267600
     19 C18         26.8750   -36.5370   -25.1700 cd         1 WFT       0.272800
     20 C19         27.5500   -37.7990   -24.9710 ca         1 WFT      -0.180800
     21 C20         26.9850   -39.0730   -24.8080 ca         1 WFT      -0.018000
     22 C21         27.8790   -40.1440   -24.6300 ca         1 WFT      -0.184000
     23 C22         29.2690   -39.8950   -24.6260 ca         1 WFT       0.386300
     24 C23         28.9210   -37.6450   -24.9530 ca         1 WFT       0.434300
     25 C24         30.2640   -41.0220   -24.4310 c3         1 WFT      -0.151400
     26 C3          30.1230   -23.0980   -27.5090 c5         1 WFT       0.141000
     27 C8          30.5430   -28.9960   -27.2380 ca         1 WFT      -0.071000
     28 C9          29.6370   -29.6400   -26.3760 ca         1 WFT      -0.115300
     29 N1          30.7220   -22.5240   -26.2760 n7         1 WFT      -0.835400
     30 N2          28.3560   -33.1850   -25.5800 ns         1 WFT      -0.494900
     31 N4          25.5210   -36.4230   -25.2240 nv         1 WFT      -0.930000
     32 S           29.4480   -35.9590   -25.1850 ss         1 WFT      -0.140900
     33 H2          31.4950   -24.7860   -27.7260 h1         1 WFT       0.041950
     34 H3          28.1030   -21.7450   -25.4340 hc         1 WFT       0.049950
     35 H4          27.6560   -23.4490   -25.4480 hc         1 WFT       0.049950
     36 H5          28.3890   -21.7630   -27.7580 hc         1 WFT       0.049950
     37 H6          27.9610   -23.4710   -27.8310 hc         1 WFT       0.049950
     38 H7          31.3650   -27.1270   -27.9080 ha         1 WFT       0.111000
     39 H8          30.0090   -22.6250   -24.2480 h1         1 WFT       0.073700
     40 H9          29.3730   -25.0230   -24.3350 h1         1 WFT       0.041950
     41 H10         31.0910   -24.7920   -24.6600 h1         1 WFT       0.041950
     42 H11         28.3250   -26.8770   -24.8540 ha         1 WFT       0.110000
     43 H12         27.8600   -29.0310   -23.5730 hc         1 WFT       0.052700
     44 H13         26.8180   -29.3490   -24.9500 hc         1 WFT       0.052700
     45 H14         27.1830   -31.4760   -23.8560 hc         1 WFT       0.049200
     46 H15         28.9210   -31.2160   -23.7290 hc         1 WFT       0.049200
     47 H16         27.4040   -31.5010   -26.3940 h1         1 WFT       0.085700
     48 H17         29.6190   -31.5390   -27.4250 hc         1 WFT       0.049700
     49 H18         30.4280   -31.5720   -25.8660 hc         1 WFT       0.049700
     50 H19         25.9100   -39.2340   -24.8190 ha         1 WFT       0.118000
     51 H20         27.5040   -41.1550   -24.4960 ha         1 WFT       0.125000
     52 H21         31.1510   -40.8830   -25.0610 hc         1 WFT       0.055700
     53 H22         30.5950   -41.0710   -23.3880 hc         1 WFT       0.055700
     54 H23         29.8240   -41.9910   -24.6900 hc         1 WFT       0.055700
     55 H24         30.5370   -22.6340   -28.4160 h1         1 WFT       0.073700
     56 H25         31.1660   -29.5830   -27.9100 ha         1 WFT       0.107000
     57 H26         31.6740   -22.8900   -26.1530 hn         1 WFT       0.407000
     58 H28         29.2740   -33.6050   -25.5160 hn         1 WFT       0.310500
     59 H29         24.9180   -37.1830   -24.9210 hn         1 WFT       0.491000
     60 H30         25.1180   -35.4860   -25.2760 hn         1 WFT       0.491000
     61 H1          29.9130   -25.0460   -28.4740 h1         1 WFT       0.041950
@<TRIPOS>BOND
     1     1    23 ar  
     2     1    24 ar  
     3     2     7 1   
     4     2    26 1   
     5     2    33 1   
     6     2    61 1   
     7     3     4 1   
     8     3     8 1   
     9     3    34 1   
    10     3    35 1   
    11     4    26 1   
    12     4    36 1   
    13     4    37 1   
    14     5     6 ar  
    15     5     7 1   
    16     5    12 ar  
    17     6    27 ar  
    18     6    38 1   
    19     7    10 1   
    20     8    10 1   
    21     8    29 1   
    22     8    39 1   
    23     9    17 2   
    24    10    40 1   
    25    10    41 1   
    26    11    12 ar  
    27    11    13 1   
    28    11    28 ar  
    29    12    42 1   
    30    13    14 1   
    31    13    43 1   
    32    13    44 1   
    33    14    15 1   
    34    14    45 1   
    35    14    46 1   
    36    15    16 1   
    37    15    30 1   
    38    15    47 1   
    39    16    28 1   
    40    16    48 1   
    41    16    49 1   
    42    17    18 1   
    43    17    30 1   
    44    18    19 2   
    45    18    32 1   
    46    19    20 1   
    47    19    31 1   
    48    20    21 ar  
    49    20    24 ar  
    50    21    22 ar  
    51    21    50 1   
    52    22    23 ar  
    53    22    51 1   
    54    23    25 1   
    55    24    32 1   
    56    25    52 1   
    57    25    53 1   
    58    25    54 1   
    59    26    29 1   
    60    26    55 1   
    61    27    28 ar  
    62    27    56 1   
    63    29    57 1   
    64    30    58 1   
    65    31    59 1   
    66    31    60 1   
@<TRIPOS>SUBSTRUCTURE
     1 WFT         1 TEMP              0 ****  ****    0 ROOT
