@<TRIPOS>MOLECULE
WFT
   61    66     1     0     0
SMALL
abcg2


@<TRIPOS>ATOM
      1 N3          29.6900   -38.7190   -25.0180 nb         1 WFT      -0.654000
      2 C2          30.5570   -24.6860   -27.3710 c6         1 WFT       0.174300
      3 C5          28.2080   -22.9300   -26.1170 c5         1 WFT      -0.062400
      4 C4          28.7550   -22.9240   -27.5590 c5         1 WFT      -0.062400
      5 C6          29.7570   -26.7630   -26.3800 ca         1 WFT       0.313000
      6 C7          30.4650   -27.5030   -27.3400 ca         1 WFT      -0.180000
      7 N           29.7640   -25.3730   -26.3680 nh         1 WFT      -0.796400
      8 C           29.4530   -23.1990   -25.2630 c5         1 WFT       0.141000
      9 O           26.4300   -33.5640   -25.4560 o          1 WFT      -0.646100
     10 C1          29.6860   -24.6950   -25.0810 c6         1 WFT       0.174300
     11 C10         28.9610   -28.8840   -25.4550 ca         1 WFT      -0.036300
     12 C11         29.0160   -27.4960   -25.4440 ca         1 WFT      -0.168000
     13 C12         28.0900   -29.5840   -24.4420 c6         1 WFT      -0.031100
     14 C13         28.4080   -31.0650   -24.3000 c6         1 WFT      -0.093400
     15 C14         28.4990   -31.7120   -25.6790 c6         1 WFT       0.111700
     16 C15         29.6700   -31.1150   -26.4490 c6         1 WFT      -0.031100
     17 C16         27.5900   -33.9820   -25.4630 c          1 WFT       0.658300
     18 C17         27.8690   -35.4080   -25.3220 cc         1 WFT      -0.267600
     19 C18         26.9150   -36.3700   -25.0590 cd         1 WFT       0.272800
     20 C19         27.5090   -37.6770   -24.9190 ca         1 WFT      -0.180800
     21 C20         26.9190   -38.9150   -24.6580 ca         1 WFT      -0.018000
     22 C21         27.7340   -40.0200   -24.5760 ca         1 WFT      -0.184000
     23 C22         29.1220   -39.8890   -24.7610 ca         1 WFT       0.386300
     24 C23         28.8960   -37.6640   -25.0890 ca         1 WFT       0.434300
     25 C24         30.0080   -41.0910   -24.6760 c3         1 WFT      -0.151400
     26 C3          30.2560   -23.1900   -27.3750 c5         1 WFT       0.141000
     27 C8          30.4060   -28.8860   -27.3500 ca         1 WFT      -0.071000
     28 C9          29.6670   -29.6070   -26.4180 ca         1 WFT      -0.115300
     29 N1          30.5040   -22.5850   -26.0690 n7         1 WFT      -0.835400
     30 N2          28.6440   -33.1520   -25.6100 ns         1 WFT      -0.494900
     31 N4          25.5790   -36.1840   -24.9740 nv         1 WFT      -0.930000
     32 S           29.4930   -36.0770   -25.4350 ss         1 WFT      -0.140900
     33 H2          31.6380   -24.8370   -27.2190 h1         1 WFT       0.041950
     34 H3          27.7740   -21.9640   -25.8580 hc         1 WFT       0.049950
     35 H4          27.4370   -23.6840   -25.9600 hc         1 WFT       0.049950
     36 H5          28.6000   -21.9540   -28.0330 hc         1 WFT       0.049950
     37 H6          28.2840   -23.6740   -28.1940 hc         1 WFT       0.049950
     38 H7          31.0770   -27.0130   -28.0850 ha         1 WFT       0.111000
     39 H8          29.3950   -22.7360   -24.2750 h1         1 WFT       0.073700
     40 H9          28.8620   -25.0990   -24.4950 h1         1 WFT       0.041950
     41 H10         30.6050   -24.8510   -24.4940 h1         1 WFT       0.041950
     42 H11         28.4380   -26.9850   -24.6850 ha         1 WFT       0.110000
     43 H12         28.1730   -29.0860   -23.4730 hc         1 WFT       0.052700
     44 H13         27.0430   -29.4730   -24.7450 hc         1 WFT       0.052700
     45 H14         27.6340   -31.5510   -23.7040 hc         1 WFT       0.049200
     46 H15         29.3570   -31.2040   -23.7720 hc         1 WFT       0.049200
     47 H16         27.5760   -31.5000   -26.2240 h1         1 WFT       0.085700
     48 H17         29.6560   -31.4680   -27.4830 hc         1 WFT       0.049700
     49 H18         30.6060   -31.4840   -26.0120 hc         1 WFT       0.049700
     50 H19         25.8490   -39.0160   -24.5230 ha         1 WFT       0.118000
     51 H20         27.3140   -40.9960   -24.3730 ha         1 WFT       0.125000
     52 H21         31.0520   -40.8130   -24.8050 hc         1 WFT       0.055700
     53 H22         29.8970   -41.5900   -23.7130 hc         1 WFT       0.055700
     54 H23         29.7480   -41.8210   -25.4450 hc         1 WFT       0.055700
     55 H24         30.8650   -22.7180   -28.1490 h1         1 WFT       0.073700
     56 H25         30.9660   -29.4220   -28.1090 ha         1 WFT       0.107000
     57 H26         31.4260   -22.8260   -25.7180 hn         1 WFT       0.407000
     58 H28         29.5790   -33.4980   -25.4560 hn         1 WFT       0.310500
     59 H29         25.0330   -36.8550   -24.4610 hn         1 WFT       0.491000
     60 H30         25.2520   -35.2320   -24.9430 hn         1 WFT       0.491000
     61 H1          30.3160   -25.0890   -28.3570 h1         1 WFT       0.041950
@<TRIPOS>BOND
     1     1    23 ar  
     2     1    24 ar  
     3     2     7 1   
     4     2    26 1   
     5     2    33 1   
     6     2    61 1   
     7     3     4 1   
     8     3     8 1   
     9     3    34 1   
    10     3    35 1   
    11     4    26 1   
    12     4    36 1   
    13     4    37 1   
    14     5     6 ar  
    15     5     7 1   
    16     5    12 ar  
    17     6    27 ar  
    18     6    38 1   
    19     7    10 1   
    20     8    10 1   
    21     8    29 1   
    22     8    39 1   
    23     9    17 2   
    24    10    40 1   
    25    10    41 1   
    26    11    12 ar  
    27    11    13 1   
    28    11    28 ar  
    29    12    42 1   
    30    13    14 1   
    31    13    43 1   
    32    13    44 1   
    33    14    15 1   
    34    14    45 1   
    35    14    46 1   
    36    15    16 1   
    37    15    30 1   
    38    15    47 1   
    39    16    28 1   
    40    16    48 1   
    41    16    49 1   
    42    17    18 1   
    43    17    30 1   
    44    18    19 2   
    45    18    32 1   
    46    19    20 1   
    47    19    31 1   
    48    20    21 ar  
    49    20    24 ar  
    50    21    22 ar  
    51    21    50 1   
    52    22    23 ar  
    53    22    51 1   
    54    23    25 1   
    55    24    32 1   
    56    25    52 1   
    57    25    53 1   
    58    25    54 1   
    59    26    29 1   
    60    26    55 1   
    61    27    28 ar  
    62    27    56 1   
    63    29    57 1   
    64    30    58 1   
    65    31    59 1   
    66    31    60 1   
@<TRIPOS>SUBSTRUCTURE
     1 WFT         1 TEMP              0 ****  ****    0 ROOT
