@<TRIPOS>MOLECULE
WFX
   49    53     1     0     0
SMALL
abcg2


@<TRIPOS>ATOM
      1 C01         -1.5230     5.4120    21.7380 c6         1 WFX      -0.116400
      2 C02         -1.7040     4.3780    20.6540 c6         1 WFX       0.171000
      3 C04          0.3930     5.2010    19.6700 cc         1 WFX      -0.302300
      4 C05          0.8400     5.6040    20.8890 cd         1 WFX      -0.014300
      5 C06         -0.0450     5.5920    22.1050 c6         1 WFX      -0.011100
      6 C10          2.7800     5.8570    19.5780 cc         1 WFX       0.050600
      7 C11          2.2320     5.9830    20.8530 cd         1 WFX      -0.336500
      8 C13          3.0300     6.4220    21.9600 cd         1 WFX       0.635500
      9 C15          4.5760     7.0840    23.2430 cc         1 WFX       0.619300
     10 C18          5.8920     7.5210    23.7090 cx         1 WFX      -0.190000
     11 C19          7.1330     6.9160    23.0850 cx         1 WFX      -0.103900
     12 C20          6.7740     8.3330    22.7850 cx         1 WFX      -0.103900
     13 C21          4.6280     5.9990    17.9970 c          1 WFX       0.622300
     14 C22          6.0530     6.3700    17.8850 ce         1 WFX      -0.259400
     15 C24          6.6650     6.3590    16.6880 cf         1 WFX      -0.055400
     16 C25          8.0940     6.8080    16.5480 c6         1 WFX       0.165800
     17 C27          8.3110     6.7770    18.8800 c6         1 WFX       0.158600
     18 C28          6.8130     6.7700    19.1320 c6         1 WFX      -0.059200
     19 C03         -0.9910     4.7150    19.3610 c6         1 WFX      -0.031100
     20 F07         -3.0490     4.1920    20.3970 f          1 WFX      -0.129500
     21 F08         -1.2560     3.1460    21.1150 f          1 WFX      -0.129500
     22 S09          1.6190     5.2740    18.4370 ss         1 WFX       0.347000
     23 N12          4.0770     6.1490    19.2510 ns         1 WFX      -0.381100
     24 N14          4.2980     6.7650    21.9390 nc         1 WFX      -0.806000
     25 N16          3.5530     6.9570    24.0480 nd         1 WFX      -0.408300
     26 O17          2.5090     6.5120    23.1940 os         1 WFX      -0.123700
     27 O23          3.9300     5.5920    17.0700 o          1 WFX      -0.538100
     28 O26          8.6150     7.4820    17.6800 os         1 WFX      -0.470000
     29 C29          6.0730     5.9250    15.3560 c          1 WFX       0.713200
     30 O30          6.2410     4.7220    15.0490 o          1 WFX      -0.696500
     31 O31          5.5730     6.8370    14.6590 o          1 WFX      -0.696500
     32 H32         -1.9350     6.3490    21.3590 hc         1 WFX       0.063200
     33 H33         -2.1040     5.1130    22.6110 hc         1 WFX       0.063200
     34 H37          0.2740     4.7880    22.7750 hc         1 WFX       0.067200
     35 H36          0.0700     6.5180    22.6670 hc         1 WFX       0.067200
     36 H39          5.9300     7.7520    24.7650 hc         1 WFX       0.095700
     37 H41          6.9800     6.1800    22.3080 hc         1 WFX       0.080700
     38 H40          7.9620     6.7210    23.7520 hc         1 WFX       0.080700
     39 H42          7.3540     9.1230    23.2410 hc         1 WFX       0.080700
     40 H43          6.3790     8.5550    21.8030 hc         1 WFX       0.080700
     41 H45          8.7130     5.9310    16.3070 h1         1 WFX       0.070700
     42 H44          8.1690     7.5030    15.7090 h1         1 WFX       0.070700
     43 H46          8.6870     5.7490    18.8070 h1         1 WFX       0.034700
     44 H47          8.8400     7.2840    19.6860 h1         1 WFX       0.034700
     45 H48          6.4900     7.7550    19.4830 hc         1 WFX       0.038700
     46 H49          6.6150     6.0620    19.9420 hc         1 WFX       0.038700
     47 H34         -1.5750     5.4830    18.8460 hc         1 WFX       0.072200
     48 H35         -0.9780     3.8280    18.7240 hc         1 WFX       0.072200
     49 H38          4.6340     6.4910    20.0320 hn         1 WFX       0.367500
@<TRIPOS>BOND
     1     1     2 1   
     2     1     5 1   
     3     1    32 1   
     4     1    33 1   
     5     2    19 1   
     6     2    20 1   
     7     2    21 1   
     8     3     4 2   
     9     3    19 1   
    10     3    22 1   
    11     4     5 1   
    12     4     7 1   
    13     5    34 1   
    14     5    35 1   
    15     6     7 2   
    16     6    22 1   
    17     6    23 1   
    18     7     8 1   
    19     8    24 2   
    20     8    26 1   
    21     9    10 1   
    22     9    24 1   
    23     9    25 2   
    24    10    11 1   
    25    10    12 1   
    26    10    36 1   
    27    11    12 1   
    28    11    37 1   
    29    11    38 1   
    30    12    39 1   
    31    12    40 1   
    32    13    14 1   
    33    13    23 1   
    34    13    27 2   
    35    14    15 2   
    36    14    18 1   
    37    15    16 1   
    38    15    29 1   
    39    16    28 1   
    40    16    41 1   
    41    16    42 1   
    42    17    18 1   
    43    17    28 1   
    44    17    43 1   
    45    17    44 1   
    46    18    45 1   
    47    18    46 1   
    48    19    47 1   
    49    19    48 1   
    50    23    49 1   
    51    25    26 1   
    52    29    30 1   
    53    29    31 1   
@<TRIPOS>SUBSTRUCTURE
     1 WFX         1 TEMP              0 ****  ****    0 ROOT
