@<TRIPOS>MOLECULE
WFX
   49    53     1     0     0
SMALL
No Charge or Current Charge


@<TRIPOS>ATOM
      1 C01         -1.5700     5.4620    21.8720 c6         1 WFX      -0.116400
      2 C02         -1.8010     4.2800    20.9070 c6         1 WFX       0.171000
      3 C04          0.2840     5.0350    19.7010 cc         1 WFX      -0.302300
      4 C05          0.7910     5.5800    20.8610 cd         1 WFX      -0.014300
      5 C06         -0.0590     5.7100    22.1240 c6         1 WFX      -0.011100
      6 C10          2.6950     5.7370    19.4690 cc         1 WFX       0.050600
      7 C11          2.1770     5.9620    20.7380 cd         1 WFX      -0.336500
      8 C13          2.9790     6.5170    21.8210 cd         1 WFX       0.635500
      9 C15          4.5010     7.3200    23.0110 cc         1 WFX       0.619300
     10 C18          5.8330     7.8490    23.3900 cx         1 WFX      -0.190000
     11 C19          7.1040     7.2230    22.8520 cx         1 WFX      -0.103900
     12 C20          6.6920     8.6060    22.3980 cx         1 WFX      -0.103900
     13 C21          4.6400     5.8570    17.8930 c          1 WFX       0.622300
     14 C22          6.1060     6.2340    17.8780 ce         1 WFX      -0.259400
     15 C24          6.8390     6.5760    16.7470 cf         1 WFX      -0.055400
     16 C25          8.3760     6.7350    16.8460 c6         1 WFX       0.165800
     17 C27          8.3490     5.9160    19.1010 c6         1 WFX       0.158600
     18 C28          6.8300     6.1250    19.2400 c6         1 WFX      -0.059200
     19 C03         -1.1260     4.5070    19.5350 c6         1 WFX      -0.031100
     20 F07         -3.1820     4.0890    20.7240 f          1 WFX      -0.129500
     21 F08         -1.3110     3.0950    21.4880 f          1 WFX      -0.129500
     22 S09          1.4710     5.0280    18.4050 ss         1 WFX       0.347000
     23 N12          4.0080     6.0270    19.1120 ns         1 WFX      -0.381100
     24 N14          4.2420     6.8890    21.7400 nc         1 WFX      -0.806000
     25 N16          3.4970     7.2330    23.8630 nd         1 WFX      -0.408300
     26 O17          2.4690     6.6910    23.0730 os         1 WFX      -0.123700
     27 O23          4.0630     5.3830    16.9270 o          1 WFX      -0.538100
     28 O26          8.8740     6.8920    18.1920 os         1 WFX      -0.470000
     29 C29          6.2770     6.8870    15.3700 c          1 WFX       0.713200
     30 O30          7.0480     6.8690    14.4190 o          1 WFX      -0.696500
     31 O31          5.1280     7.2900    15.2580 o          1 WFX      -0.696500
     32 H32         -2.0180     6.3670    21.4390 hc         1 WFX       0.063200
     33 H33         -2.0870     5.2850    22.8250 hc         1 WFX       0.063200
     34 H37          0.3000     4.9990    22.8810 hc         1 WFX       0.067200
     35 H36          0.0420     6.7120    22.5610 hc         1 WFX       0.067200
     36 H39          5.8590     8.1960    24.4200 hc         1 WFX       0.095700
     37 H41          7.0090     6.3990    22.1500 hc         1 WFX       0.080700
     38 H40          7.9530     7.1440    23.5270 hc         1 WFX       0.080700
     39 H42          7.2670     9.4520    22.7690 hc         1 WFX       0.080700
     40 H43          6.3190     8.7280    21.3840 hc         1 WFX       0.080700
     41 H45          8.8520     5.8500    16.3990 h1         1 WFX       0.070700
     42 H44          8.7010     7.6070    16.2610 h1         1 WFX       0.070700
     43 H46          8.5670     4.9070    18.7200 h1         1 WFX       0.034700
     44 H47          8.8390     6.0310    20.0790 h1         1 WFX       0.034700
     45 H48          6.6510     7.0450    19.8090 hc         1 WFX       0.038700
     46 H49          6.4250     5.2960    19.8370 hc         1 WFX       0.038700
     47 H34         -1.7240     5.2220    18.9530 hc         1 WFX       0.072200
     48 H35         -1.1330     3.5690    18.9610 hc         1 WFX       0.072200
     49 H38          4.5930     6.4250    19.8410 hn         1 WFX       0.367500
@<TRIPOS>BOND
     1     1     2 1   
     2     1     5 1   
     3     1    32 1   
     4     1    33 1   
     5     2    19 1   
     6     2    20 1   
     7     2    21 1   
     8     3     4 2   
     9     3    19 1   
    10     3    22 1   
    11     4     5 1   
    12     4     7 1   
    13     5    34 1   
    14     5    35 1   
    15     6     7 2   
    16     6    22 1   
    17     6    23 1   
    18     7     8 1   
    19     8    24 2   
    20     8    26 1   
    21     9    10 1   
    22     9    24 1   
    23     9    25 2   
    24    10    11 1   
    25    10    12 1   
    26    10    36 1   
    27    11    12 1   
    28    11    37 1   
    29    11    38 1   
    30    12    39 1   
    31    12    40 1   
    32    13    14 1   
    33    13    23 1   
    34    13    27 2   
    35    14    15 2   
    36    14    18 1   
    37    15    16 1   
    38    15    29 1   
    39    16    28 1   
    40    16    41 1   
    41    16    42 1   
    42    17    18 1   
    43    17    28 1   
    44    17    43 1   
    45    17    44 1   
    46    18    45 1   
    47    18    46 1   
    48    19    47 1   
    49    19    48 1   
    50    23    49 1   
    51    25    26 1   
    52    29    30 1   
    53    29    31 1   
@<TRIPOS>SUBSTRUCTURE
     1 WFX         1 TEMP              0 ****  ****    0 ROOT
