@<TRIPOS>MOLECULE
WFY
   40    42     1     0     0
SMALL
abcg2


@<TRIPOS>ATOM
      1 CLAM        23.8660    36.4160     2.1710 cl         1 WFY      -0.178000
      2 CAD         23.3430    35.2960     0.9690 ca         1 WFY       0.184000
      3 CAA         23.0990    33.9810     1.3170 ca         1 WFY      -0.136000
      4 CAB         22.6790    33.0880     0.3270 ca         1 WFY       0.310500
      5 CAJ         22.4280    31.6550     0.6990 c          1 WFY       0.513600
      6 OAL         22.5550    31.2710     1.8530 o          1 WFY      -0.601100
      7 NAK         22.0690    30.8700    -0.3200 nt         1 WFY      -0.591000
      8 NAC         22.4940    33.4290    -0.9400 nb         1 WFY      -0.700000
      9 CAF         22.7330    34.6880    -1.2430 ca         1 WFY       0.372500
     10 CAE         23.1680    35.7010    -0.3490 ca         1 WFY      -0.105800
     11 CAI         23.3060    36.9020    -1.1070 cc         1 WFY      -0.124400
     12 CAN         23.7330    38.2550    -0.6430 c3         1 WFY      -0.016900
     13 CAH         22.9610    36.5660    -2.3850 cd         1 WFY      -0.126100
     14 NAG         22.6090    35.2430    -2.4800 na         1 WFY      -0.191400
     15 CAO         22.2110    34.5310    -3.6850 c3         1 WFY       0.078300
     16 CAP         21.1550    35.3120    -4.4560 c3         1 WFY      -0.103100
     17 CAQ         23.4250    34.1660    -4.5330 c5         1 WFY       0.186000
     18 FAV         23.9890    35.3600    -5.0030 f          1 WFY      -0.253000
     19 CAR         23.0970    33.2640    -5.7290 c5         1 WFY      -0.106400
     20 CAT         24.2480    32.2450    -5.7880 c5         1 WFY       0.152800
     21 NAS         25.2560    32.8030    -4.8970 n7         1 WFY      -0.850400
     22 CAU         24.5110    33.3910    -3.8010 c5         1 WFY       0.128800
     23 H1          23.2320    33.6420     2.3340 ha         1 WFY       0.162000
     24 H2          21.8900    29.8910    -0.1710 hn         1 WFY       0.324000
     25 H3          21.9880    31.2410    -1.2520 hn         1 WFY       0.324000
     26 H4          23.0690    38.6500     0.1260 hc         1 WFY       0.043700
     27 H5          24.7400    38.2420    -0.2240 hc         1 WFY       0.043700
     28 H6          23.7290    38.9580    -1.4750 hc         1 WFY       0.043700
     29 H7          22.9360    37.2110    -3.2480 h4         1 WFY       0.227000
     30 H8          21.7630    33.5940    -3.3470 h1         1 WFY       0.085700
     31 H9          20.2880    35.4970    -3.8230 hc         1 WFY       0.053700
     32 H10         21.5240    36.2700    -4.8210 hc         1 WFY       0.053700
     33 H11         20.8200    34.7400    -5.3190 hc         1 WFY       0.053700
     34 H12         23.0150    33.8610    -6.6370 hc         1 WFY       0.061200
     35 H13         22.1400    32.7600    -5.5910 hc         1 WFY       0.061200
     36 H14         23.8850    31.2640    -5.4540 h1         1 WFY       0.040200
     37 H15         24.6430    32.1190    -6.7970 h1         1 WFY       0.040200
     38 H16         25.9020    32.0970    -4.5720 hn         1 WFY       0.422000
     39 H18         24.0360    32.6470    -3.1440 h1         1 WFY       0.058200
     40 H19         25.1380    34.0320    -3.1770 h1         1 WFY       0.058200
@<TRIPOS>BOND
     1     1     2 1   
     2     2     3 ar  
     3     2    10 ar  
     4     3     4 ar  
     5     3    23 1   
     6     4     5 1   
     7     4     8 ar  
     8     5     6 2   
     9     5     7 1   
    10     7    24 1   
    11     7    25 1   
    12     8     9 ar  
    13     9    10 ar  
    14     9    14 1   
    15    10    11 1   
    16    11    12 1   
    17    11    13 2   
    18    12    26 1   
    19    12    27 1   
    20    12    28 1   
    21    13    14 1   
    22    13    29 1   
    23    14    15 1   
    24    15    16 1   
    25    15    17 1   
    26    15    30 1   
    27    16    31 1   
    28    16    32 1   
    29    16    33 1   
    30    17    18 1   
    31    17    19 1   
    32    17    22 1   
    33    19    20 1   
    34    19    34 1   
    35    19    35 1   
    36    20    21 1   
    37    20    36 1   
    38    20    37 1   
    39    21    22 1   
    40    21    38 1   
    41    22    39 1   
    42    22    40 1   
@<TRIPOS>SUBSTRUCTURE
     1 WFY         1 TEMP              0 ****  ****    0 ROOT
