@<TRIPOS>MOLECULE
WFY
   40    42     1     0     0
SMALL
No Charge or Current Charge


@<TRIPOS>ATOM
      1 ClAM        23.8340    36.6020     2.1780 cl         1 WFY      -0.178000
      2 CAD         23.2970    35.4030     1.0040 ca         1 WFY       0.184000
      3 CAA         23.0030    34.1030     1.4360 ca         1 WFY      -0.136000
      4 CAB         22.5740    33.1340     0.5020 ca         1 WFY       0.310500
      5 CAJ         22.2520    31.7090     0.9800 c          1 WFY       0.513600
      6 OAL         22.3490    31.3450     2.1450 o          1 WFY      -0.601100
      7 NAK         21.8390    30.8120     0.0480 nt         1 WFY      -0.591000
      8 NAC         22.4370    33.4370    -0.8260 nb         1 WFY      -0.700000
      9 CAF         22.7210    34.6940    -1.2310 ca         1 WFY       0.372500
     10 CAE         23.1450    35.6790    -0.3650 ca         1 WFY      -0.105800
     11 CAI         23.3670    36.8930    -1.1200 cc         1 WFY      -0.124400
     12 CAN         23.8360    38.2310    -0.6140 c3         1 WFY      -0.016900
     13 CAH         23.0630    36.5800    -2.4360 cd         1 WFY      -0.126100
     14 NAG         22.6610    35.2290    -2.5110 na         1 WFY      -0.191400
     15 CAO         22.2700    34.4550    -3.7120 c3         1 WFY       0.078300
     16 CAP         21.0780    35.1320    -4.4320 c3         1 WFY      -0.103100
     17 CAQ         23.4730    34.1230    -4.6510 c5         1 WFY       0.186000
     18 FAV         23.9330    35.3310    -5.1950 f          1 WFY      -0.253000
     19 CAR         23.1460    33.1400    -5.8100 c5         1 WFY      -0.106400
     20 CAT         24.5620    32.6510    -6.1800 c5         1 WFY       0.152800
     21 NAS         25.1190    32.2820    -4.8630 n7         1 WFY      -0.850400
     22 CAU         24.6660    33.3770    -3.9470 c5         1 WFY       0.128800
     23 H1          23.1060    33.8440     2.4860 ha         1 WFY       0.162000
     24 H2          21.6180    29.8660     0.3210 hn         1 WFY       0.324000
     25 H3          21.7560    31.1100    -0.9150 hn         1 WFY       0.324000
     26 H4          23.1400    38.6370     0.1290 hc         1 WFY       0.043700
     27 H5          24.8280    38.1510    -0.1540 hc         1 WFY       0.043700
     28 H6          23.9080    38.9570    -1.4330 hc         1 WFY       0.043700
     29 H7          23.1070    37.2150    -3.3170 h4         1 WFY       0.227000
     30 H8          21.8940    33.4870    -3.3590 h1         1 WFY       0.085700
     31 H9          20.2520    35.2990    -3.7300 hc         1 WFY       0.053700
     32 H10         21.3680    36.1010    -4.8550 hc         1 WFY       0.053700
     33 H11         20.7010    34.5010    -5.2460 hc         1 WFY       0.053700
     34 H12         22.6430    33.6280    -6.6520 hc         1 WFY       0.061200
     35 H13         22.5080    32.3110    -5.4800 hc         1 WFY       0.061200
     36 H14         24.5450    31.7960    -6.8700 h1         1 WFY       0.040200
     37 H15         25.1540    33.4530    -6.6450 h1         1 WFY       0.040200
     38 H16         24.6650    31.4070    -4.5680 hn         1 WFY       0.422000
     39 H18         24.3690    32.9590    -2.9740 h1         1 WFY       0.058200
     40 H19         25.4860    34.0830    -3.7520 h1         1 WFY       0.058200
@<TRIPOS>BOND
     1     1     2 1   
     2     2     3 ar  
     3     2    10 ar  
     4     3     4 ar  
     5     3    23 1   
     6     4     5 1   
     7     4     8 ar  
     8     5     6 2   
     9     5     7 1   
    10     7    24 1   
    11     7    25 1   
    12     8     9 ar  
    13     9    10 ar  
    14     9    14 1   
    15    10    11 1   
    16    11    12 1   
    17    11    13 2   
    18    12    26 1   
    19    12    27 1   
    20    12    28 1   
    21    13    14 1   
    22    13    29 1   
    23    14    15 1   
    24    15    16 1   
    25    15    17 1   
    26    15    30 1   
    27    16    31 1   
    28    16    32 1   
    29    16    33 1   
    30    17    18 1   
    31    17    19 1   
    32    17    22 1   
    33    19    20 1   
    34    19    34 1   
    35    19    35 1   
    36    20    21 1   
    37    20    36 1   
    38    20    37 1   
    39    21    22 1   
    40    21    38 1   
    41    22    39 1   
    42    22    40 1   
@<TRIPOS>SUBSTRUCTURE
     1 WFY         1 TEMP              0 ****  ****    0 ROOT
