@<TRIPOS>MOLECULE
WFZ
   37    39     1     0     0
SMALL
abcg2


@<TRIPOS>ATOM
      1 N           -6.2480     0.2250    -0.7580 nv         1 WFZ      -0.922000
      2 C02         -5.7870     1.4150    -0.2410 ce         1 WFZ       0.090200
      3 C03         -4.4040     1.3440     0.2560 cc         1 WFZ       0.464200
      4 N04         -3.6090     0.3680    -0.0400 nd         1 WFZ      -0.587000
      5 C05         -2.3740     0.5260     0.5130 cd         1 WFZ       0.285000
      6 C06         -1.3120    -0.4570     0.2560 ca         1 WFZ       0.313000
      7 N07         -0.0800     0.0360     0.2270 nb         1 WFZ      -0.703000
      8 C08          0.9410    -0.7670    -0.0350 ca         1 WFZ       0.241000
      9 C09          2.2570    -0.1350    -0.0020 cc         1 WFZ       0.415400
     10 N10          3.3890    -0.7310    -0.1750 nd         1 WFZ      -0.614000
     11 C11          4.4250     0.1470    -0.0680 cd         1 WFZ       0.232500
     12 C12          5.8040    -0.3610    -0.2240 c          1 WFZ       0.522600
     13 O13          6.6980     0.6030    -0.0790 os         1 WFZ      -0.444100
     14 C14          8.0750     0.2470    -0.1930 c3         1 WFZ       0.155900
     15 O15          6.0690    -1.5140    -0.4530 o          1 WFZ      -0.463000
     16 C16          4.0720     1.4400     0.1900 cc         1 WFZ      -0.261000
     17 S17          2.3780     1.5680     0.3060 ss         1 WFZ       0.056600
     18 C18          0.7770    -2.1140    -0.3320 ca         1 WFZ      -0.110000
     19 C19         -0.5090    -2.6230    -0.3060 ca         1 WFZ      -0.092000
     20 C20         -1.5880    -1.8130     0.0310 ca         1 WFZ      -0.095600
     21 C           -2.9610    -2.4480     0.2240 c          1 WFZ       0.730600
     22 O22         -3.4320    -3.0400    -0.7600 o          1 WFZ      -0.698000
     23 O           -3.4240    -2.3460     1.3710 o          1 WFZ      -0.698000
     24 C24         -2.2240     1.6630     1.2510 cc         1 WFZ      -0.248000
     25 S25         -3.6850     2.5460     1.2720 ss         1 WFZ      -0.066400
     26 C26         -6.5070     2.5440    -0.1430 c2         1 WFZ      -0.473000
     27 H011        -7.0280     0.3030    -1.3910 hn         1 WFZ       0.465500
     28 H012        -5.5330    -0.3990    -1.1000 hn         1 WFZ       0.465500
     29 H141         8.6340     1.1630    -0.0300 h1         1 WFZ       0.043700
     30 H142         8.3590    -0.4880     0.5600 h1         1 WFZ       0.043700
     31 H143         8.3030    -0.1460    -1.1840 h1         1 WFZ       0.043700
     32 H161         4.7110     2.3000     0.3150 h4         1 WFZ       0.160000
     33 H181         1.6260    -2.7370    -0.5750 ha         1 WFZ       0.128000
     34 H191        -0.6720    -3.6720    -0.5240 ha         1 WFZ       0.131000
     35 H241        -1.3480     2.0050     1.7800 h4         1 WFZ       0.161000
     36 H261        -6.1020     3.4410     0.3010 ha         1 WFZ       0.163500
     37 H262        -7.5240     2.5930    -0.5070 ha         1 WFZ       0.163500
@<TRIPOS>BOND
     1     1     2 1   
     2     1    27 1   
     3     1    28 1   
     4     2     3 1   
     5     2    26 2   
     6     3     4 2   
     7     3    25 1   
     8     4     5 1   
     9     5     6 1   
    10     5    24 2   
    11     6     7 ar  
    12     6    20 ar  
    13     7     8 ar  
    14     8     9 1   
    15     8    18 ar  
    16     9    10 2   
    17     9    17 1   
    18    10    11 1   
    19    11    12 1   
    20    11    16 2   
    21    12    13 1   
    22    12    15 2   
    23    13    14 1   
    24    14    29 1   
    25    14    30 1   
    26    14    31 1   
    27    16    17 1   
    28    16    32 1   
    29    18    19 ar  
    30    18    33 1   
    31    19    20 ar  
    32    19    34 1   
    33    20    21 1   
    34    21    22 1   
    35    21    23 1   
    36    24    25 1   
    37    24    35 1   
    38    26    36 1   
    39    26    37 1   
@<TRIPOS>SUBSTRUCTURE
     1 WFZ         1 TEMP              0 ****  ****    0 ROOT
