@<TRIPOS>MOLECULE
WFZ
   37    39     1     0     0
SMALL
No Charge or Current Charge


@<TRIPOS>ATOM
      1 N           -6.6970     0.1400     0.0810 nv         1 WFZ      -0.922000
      2 C02         -6.0630     1.3770     0.1640 ce         1 WFZ       0.090200
      3 C03         -4.5640     1.4190     0.1840 cc         1 WFZ       0.464200
      4 N04         -3.8130     0.3320     0.0250 nd         1 WFZ      -0.587000
      5 C05         -2.4570     0.6490     0.0730 cd         1 WFZ       0.285000
      6 C06         -1.3580    -0.3720    -0.0730 ca         1 WFZ       0.313000
      7 N07         -0.0870     0.1270     0.0140 nb         1 WFZ      -0.703000
      8 C08          0.9950    -0.6940    -0.0990 ca         1 WFZ       0.241000
      9 C09          2.3580    -0.1120     0.0010 cc         1 WFZ       0.415400
     10 N10          3.4820    -0.8260    -0.0950 nd         1 WFZ      -0.614000
     11 C11          4.6080    -0.0060     0.0390 cd         1 WFZ       0.232500
     12 C12          6.0490    -0.4620    -0.0160 c          1 WFZ       0.522600
     13 O13          6.9760     0.5450     0.1440 os         1 WFZ      -0.444100
     14 C14          8.3750     0.2020     0.1060 c3         1 WFZ       0.155900
     15 O15          6.3750    -1.6320    -0.1880 o          1 WFZ      -0.463000
     16 C16          4.2970     1.3270     0.2350 cc         1 WFZ      -0.261000
     17 S17          2.5810     1.6030     0.2600 ss         1 WFZ       0.056600
     18 C18          0.8280    -2.0790    -0.3080 ca         1 WFZ      -0.110000
     19 C19         -0.4630    -2.6160    -0.4010 ca         1 WFZ      -0.092000
     20 C20         -1.5750    -1.7590    -0.2840 ca         1 WFZ      -0.095600
     21 C           -2.9410    -2.3600    -0.3900 c          1 WFZ       0.730600
     22 O22         -3.4120    -2.5050    -1.5100 o          1 WFZ      -0.698000
     23 O           -3.4250    -2.8530     0.6200 o          1 WFZ      -0.698000
     24 C24         -2.2170     1.9970     0.2690 cc         1 WFZ      -0.248000
     25 S25         -3.6880     2.9140     0.3970 ss         1 WFZ      -0.066400
     26 C26         -6.8480     2.4680     0.2090 c2         1 WFZ      -0.473000
     27 H011        -7.6910     0.0880    -0.1300 hn         1 WFZ       0.465500
     28 H012        -6.1310    -0.6920    -0.0920 hn         1 WFZ       0.465500
     29 H141         8.9910     1.0990     0.2460 h1         1 WFZ       0.043700
     30 H142         8.6250    -0.5100     0.9030 h1         1 WFZ       0.043700
     31 H143         8.6420    -0.2460    -0.8590 h1         1 WFZ       0.043700
     32 H161         4.9700     2.1640     0.3670 h4         1 WFZ       0.160000
     33 H181         1.6900    -2.7340    -0.3980 ha         1 WFZ       0.128000
     34 H191        -0.6030    -3.6830    -0.5630 ha         1 WFZ       0.131000
     35 H241        -1.2650     2.5030     0.3440 h4         1 WFZ       0.161000
     36 H261        -6.4390     3.4770     0.2670 ha         1 WFZ       0.163500
     37 H262        -7.9360     2.3970     0.1890 ha         1 WFZ       0.163500
@<TRIPOS>BOND
     1     1     2 1   
     2     1    27 1   
     3     1    28 1   
     4     2     3 1   
     5     2    26 2   
     6     3     4 2   
     7     3    25 1   
     8     4     5 1   
     9     5     6 1   
    10     5    24 2   
    11     6     7 ar  
    12     6    20 ar  
    13     7     8 ar  
    14     8     9 1   
    15     8    18 ar  
    16     9    10 2   
    17     9    17 1   
    18    10    11 1   
    19    11    12 1   
    20    11    16 2   
    21    12    13 1   
    22    12    15 2   
    23    13    14 1   
    24    14    29 1   
    25    14    30 1   
    26    14    31 1   
    27    16    17 1   
    28    16    32 1   
    29    18    19 ar  
    30    18    33 1   
    31    19    20 ar  
    32    19    34 1   
    33    20    21 1   
    34    21    22 1   
    35    21    23 1   
    36    24    25 1   
    37    24    35 1   
    38    26    36 1   
    39    26    37 1   
@<TRIPOS>SUBSTRUCTURE
     1 WFZ         1 TEMP              0 ****  ****    0 ROOT
