@<TRIPOS>MOLECULE
WG0
   43    46     1     0     0
SMALL
No Charge or Current Charge


@<TRIPOS>ATOM
      1 Cl1         19.1450    46.5480   -23.7900 cl         1 WG0      -0.233000
      2 C15         18.9750    45.0230   -24.6480 ca         1 WG0       0.122000
      3 C16         19.4490    44.9010   -25.9620 ca         1 WG0      -0.115500
      4 C17         19.3140    43.6830   -26.6510 ca         1 WG0      -0.075500
      5 C13         18.3610    43.9300   -24.0210 ca         1 WG0      -0.115500
      6 C14         18.2240    42.7090   -24.7060 ca         1 WG0      -0.075500
      7 C12         18.7110    42.5630   -26.0280 ca         1 WG0      -0.106900
      8 C8          18.5420    41.2620   -26.7700 ce         1 WG0       0.500500
      9 C5          19.1130    41.1350   -28.1230 cc         1 WG0      -0.208900
     10 C4          20.5210    41.0600   -28.3860 cc         1 WG0      -0.058300
     11 C7          21.5300    41.0650   -27.2620 c3         1 WG0      -0.027800
     12 C2          20.8310    40.9900   -29.7330 cd         1 WG0      -0.220300
     13 C6          22.2030    40.9150   -30.3540 c3         1 WG0      -0.012800
     14 S1          19.3930    40.9930   -30.7730 ss         1 WG0       0.209000
     15 C3          18.4220    41.0850   -29.3090 cd         1 WG0      -0.076200
     16 N9          17.0340    40.9190   -29.2880 na         1 WG0      -0.280800
     17 C11         16.1160    41.3750   -30.2040 cc         1 WG0       0.386800
     18 C28         16.3940    42.2250   -31.4120 c3         1 WG0      -0.119400
     19 N27         14.9090    41.0290   -29.7840 nd         1 WG0      -0.361000
     20 N21         15.0480    40.3020   -28.6180 nd         1 WG0      -0.307000
     21 C19         16.3410    40.2120   -28.3330 cc         1 WG0       0.445800
     22 N10         17.7460    40.3500   -26.2980 n2         1 WG0      -0.548900
     23 C20         17.0090    39.4340   -27.1940 c3         1 WG0       0.104200
     24 C22         16.0770    38.5440   -26.3290 c3         1 WG0      -0.189400
     25 C23         15.6040    37.3270   -27.1360 c          1 WG0       0.717000
     26 O24         16.3520    36.3640   -27.2050 o          1 WG0      -0.733500
     27 H1          19.9170    45.7520   -26.4500 ha         1 WG0       0.124000
     28 H2          19.6780    43.6230   -27.6740 ha         1 WG0       0.132500
     29 H3          17.9900    44.0270   -23.0040 ha         1 WG0       0.124000
     30 H4          17.7430    41.8760   -24.1980 ha         1 WG0       0.132500
     31 H5          21.7760    42.0900   -26.9630 hc         1 WG0       0.044700
     32 H6          21.1530    40.5340   -26.3800 hc         1 WG0       0.044700
     33 H7          22.4620    40.5710   -27.5600 hc         1 WG0       0.044700
     34 H8          22.1550    41.0080   -31.4450 hc         1 WG0       0.042033
     35 H9          22.8490    41.7180   -29.9800 hc         1 WG0       0.042033
     36 H10         22.6860    39.9590   -30.1220 hc         1 WG0       0.042033
     37 H11         15.4770    42.7050   -31.7720 hc         1 WG0       0.052700
     38 H12         17.1150    43.0170   -31.1770 hc         1 WG0       0.052700
     39 H13         16.7980    41.6180   -32.2300 hc         1 WG0       0.052700
     40 H14         17.7320    38.7600   -27.6740 h1         1 WG0       0.092700
     41 H15         16.7020    38.1920   -25.4990 hc         1 WG0       0.044200
     42 H16         15.2310    39.1630   -26.0080 hc         1 WG0       0.044200
     43 O1          14.5220    37.3790   -27.6970 o          1 WG0      -0.733500
@<TRIPOS>BOND
     1     1     2 1   
     2     2     3 ar  
     3     2     5 ar  
     4     3     4 ar  
     5     3    27 1   
     6     4     7 ar  
     7     4    28 1   
     8     5     6 ar  
     9     5    29 1   
    10     6     7 ar  
    11     6    30 1   
    12     7     8 1   
    13     8     9 1   
    14     8    22 2   
    15     9    10 1   
    16     9    15 2   
    17    10    11 1   
    18    10    12 2   
    19    11    31 1   
    20    11    32 1   
    21    11    33 1   
    22    12    13 1   
    23    12    14 1   
    24    13    34 1   
    25    13    35 1   
    26    13    36 1   
    27    14    15 1   
    28    15    16 1   
    29    16    17 1   
    30    16    21 1   
    31    17    18 1   
    32    17    19 2   
    33    18    37 1   
    34    18    38 1   
    35    18    39 1   
    36    19    20 1   
    37    20    21 2   
    38    21    23 1   
    39    22    23 1   
    40    23    24 1   
    41    23    40 1   
    42    24    25 1   
    43    24    41 1   
    44    24    42 1   
    45    25    26 1   
    46    25    43 1   
@<TRIPOS>SUBSTRUCTURE
     1 WG0         1 TEMP              0 ****  ****    0 ROOT
