@<TRIPOS>MOLECULE
WG0
   43    46     1     0     0
SMALL
abcg2


@<TRIPOS>ATOM
      1 CL1         19.8300    46.1880   -23.5380 cl         1 WG0      -0.233000
      2 C15         19.3830    44.8020   -24.5060 ca         1 WG0       0.122000
      3 C16         19.5070    44.8700   -25.8870 ca         1 WG0      -0.115500
      4 C17         19.1590    43.7620   -26.6480 ca         1 WG0      -0.075500
      5 C13         18.9140    43.6540   -23.8770 ca         1 WG0      -0.115500
      6 C14         18.5580    42.5610   -24.6520 ca         1 WG0      -0.075500
      7 C12         18.6760    42.6000   -26.0430 ca         1 WG0      -0.106900
      8 C8          18.2580    41.4370   -26.8670 ce         1 WG0       0.500500
      9 C5          19.0000    41.1860   -28.1230 cc         1 WG0      -0.208900
     10 C4          20.4300    41.2180   -28.2790 cc         1 WG0      -0.058300
     11 C7          21.4080    41.4100   -27.1560 c3         1 WG0      -0.027800
     12 C2          20.8180    41.0110   -29.5750 cd         1 WG0      -0.220300
     13 C6          22.2050    40.9910   -30.1370 c3         1 WG0      -0.012800
     14 S1          19.4620    40.7620   -30.6260 ss         1 WG0       0.209000
     15 C3          18.3570    40.9420   -29.3170 cd         1 WG0      -0.076200
     16 N9          16.9780    40.7730   -29.4570 na         1 WG0      -0.280800
     17 C11         16.1070    41.1850   -30.4430 cc         1 WG0       0.386800
     18 C28         16.4930    41.9340   -31.6630 c3         1 WG0      -0.119400
     19 N27         14.8930    40.8180   -30.1190 nd         1 WG0      -0.361000
     20 N21         14.9470    40.1570   -28.8980 nd         1 WG0      -0.307000
     21 C19         16.1930    40.1320   -28.5190 cc         1 WG0       0.445800
     22 N10         17.2460    40.7580   -26.4710 n2         1 WG0      -0.548900
     23 C20         16.8110    39.6000   -27.2690 c3         1 WG0       0.104200
     24 C22         15.8610    38.7240   -26.4700 c3         1 WG0      -0.189400
     25 C23         15.5100    37.3790   -27.1360 c          1 WG0       0.717000
     26 O24         16.3410    36.8960   -27.9480 o          1 WG0      -0.733500
     27 H1          19.8700    45.7710   -26.3600 ha         1 WG0       0.124000
     28 H2          19.2580    43.8090   -27.7240 ha         1 WG0       0.132500
     29 H3          18.8340    43.6170   -22.7990 ha         1 WG0       0.124000
     30 H4          18.1920    41.6620   -24.1760 ha         1 WG0       0.132500
     31 H5          21.6210    42.4670   -26.9850 hc         1 WG0       0.044700
     32 H6          21.0210    40.9990   -26.2240 hc         1 WG0       0.044700
     33 H7          22.3510    40.9130   -27.3820 hc         1 WG0       0.044700
     34 H8          22.2040    40.7030   -31.1880 hc         1 WG0       0.042033
     35 H9          22.6750    41.9730   -30.0560 hc         1 WG0       0.042033
     36 H10         22.8300    40.2790   -29.5940 hc         1 WG0       0.042033
     37 H11         15.5880    42.2680   -32.1670 hc         1 WG0       0.052700
     38 H12         17.1040    42.8030   -31.4120 hc         1 WG0       0.052700
     39 H13         17.0640    41.3080   -32.3520 hc         1 WG0       0.052700
     40 H14         17.6800    39.0030   -27.5670 h1         1 WG0       0.092700
     41 H15         16.3440    38.4980   -25.5140 hc         1 WG0       0.044200
     42 H16         14.9440    39.2660   -26.2410 hc         1 WG0       0.044200
     43 O1          14.4260    36.8490   -26.7830 o          1 WG0      -0.733500
@<TRIPOS>BOND
     1     1     2 1   
     2     2     3 ar  
     3     2     5 ar  
     4     3     4 ar  
     5     3    27 1   
     6     4     7 ar  
     7     4    28 1   
     8     5     6 ar  
     9     5    29 1   
    10     6     7 ar  
    11     6    30 1   
    12     7     8 1   
    13     8     9 1   
    14     8    22 2   
    15     9    10 1   
    16     9    15 2   
    17    10    11 1   
    18    10    12 2   
    19    11    31 1   
    20    11    32 1   
    21    11    33 1   
    22    12    13 1   
    23    12    14 1   
    24    13    34 1   
    25    13    35 1   
    26    13    36 1   
    27    14    15 1   
    28    15    16 1   
    29    16    17 1   
    30    16    21 1   
    31    17    18 1   
    32    17    19 2   
    33    18    37 1   
    34    18    38 1   
    35    18    39 1   
    36    19    20 1   
    37    20    21 2   
    38    21    23 1   
    39    22    23 1   
    40    23    24 1   
    41    23    40 1   
    42    24    25 1   
    43    24    41 1   
    44    24    42 1   
    45    25    26 1   
    46    25    43 1   
@<TRIPOS>SUBSTRUCTURE
     1 WG0         1 TEMP              0 ****  ****    0 ROOT
