@<TRIPOS>MOLECULE
WG3
   41    44     1     0     0
SMALL
abcg2


@<TRIPOS>ATOM
      1 C02          0.0360     4.9610    20.2480 ca         1 WG3      -0.185000
      2 C04          1.7410     5.1970    18.5500 ca         1 WG3      -0.168000
      3 C05          2.6430     5.7360    19.4810 ca         1 WG3       0.083000
      4 C06          2.2070     5.8800    20.8270 ca         1 WG3      -0.274500
      5 C07          0.9080     5.4880    21.1800 ca         1 WG3      -0.036000
      6 N09          4.3100     6.8010    21.8100 nc         1 WG3      -0.775000
      7 C10          4.5930     7.2110    23.0940 cc         1 WG3       0.615300
      8 O12          2.5510     6.5680    23.1040 os         1 WG3      -0.122700
      9 C13          5.8880     7.7260    23.5350 cx         1 WG3      -0.194000
     10 C15          5.9420     6.5580    17.9100 ce         1 WG3      -0.295400
     11 C17          6.6930     6.7280    16.8050 cf         1 WG3      -0.008400
     12 C18          8.0690     7.2340    17.1600 c5         1 WG3      -0.064200
     13 C19          8.1690     7.0040    18.6800 c5         1 WG3      -0.082400
     14 C20          6.7100     6.9250    19.1650 c5         1 WG3      -0.029200
     15 C21          6.3420     6.5370    15.3510 c          1 WG3       0.716200
     16 C24          7.1610     7.1830    22.9230 cx         1 WG3      -0.101900
     17 C25          6.7220     8.5720    22.5960 cx         1 WG3      -0.101900
     18 N01          3.9360     6.1140    19.1370 ns         1 WG3      -0.157000
     19 C03          0.4650     4.8190    18.9310 ca         1 WG3      -0.047000
     20 C08          3.0610     6.4190    21.8700 cd         1 WG3       0.600500
     21 N11          3.5800     7.0960    23.9120 nd         1 WG3      -0.401300
     22 C14          4.5330     6.1350    17.8900 c          1 WG3       0.641300
     23 O16          3.9400     5.8270    16.8570 o          1 WG3      -0.552100
     24 O22          6.5720     5.4030    14.8680 o          1 WG3      -0.705000
     25 O23          5.9330     7.5560    14.7440 o          1 WG3      -0.705000
     26 H27         -0.9610     4.6630    20.5420 ha         1 WG3       0.109000
     27 H29          2.0610     5.0830    17.5300 ha         1 WG3       0.171000
     28 H30          0.5920     5.6020    22.2080 ha         1 WG3       0.117000
     29 H31          5.9150     7.9830    24.5850 hc         1 WG3       0.094700
     30 H32          8.8530     6.7260    16.5940 hc         1 WG3       0.060200
     31 H33          8.1320     8.2970    16.9000 hc         1 WG3       0.060200
     32 H35          8.6650     6.0500    18.8680 hc         1 WG3       0.028700
     33 H34          8.7400     7.7800    19.1890 hc         1 WG3       0.028700
     34 H36          6.3640     7.8860    19.5570 hc         1 WG3       0.029200
     35 H37          6.5890     6.1950    19.9670 hc         1 WG3       0.029200
     36 H39          7.9990     7.0490    23.5940 hc         1 WG3       0.081950
     37 H40          7.0540     6.4260    22.1600 hc         1 WG3       0.081950
     38 H41          6.3160     8.7550    21.6110 hc         1 WG3       0.081950
     39 H42          7.2530     9.4030    23.0400 hc         1 WG3       0.081950
     40 H26          4.5000     6.4370    19.9170 hn         1 WG3       0.187000
     41 H28         -0.2010     4.4040    18.1860 ha         1 WG3       0.111000
@<TRIPOS>BOND
     1     1     5 ar  
     2     1    19 ar  
     3     1    26 1   
     4     2     3 ar  
     5     2    19 ar  
     6     2    27 1   
     7     3     4 ar  
     8     3    18 1   
     9     4     5 ar  
    10     4    20 1   
    11     5    28 1   
    12     6     7 1   
    13     6    20 2   
    14     7     9 1   
    15     7    21 2   
    16     8    20 1   
    17     8    21 1   
    18     9    16 1   
    19     9    17 1   
    20     9    29 1   
    21    10    11 2   
    22    10    14 1   
    23    10    22 1   
    24    11    12 1   
    25    11    15 1   
    26    12    13 1   
    27    12    30 1   
    28    12    31 1   
    29    13    14 1   
    30    13    32 1   
    31    13    33 1   
    32    14    34 1   
    33    14    35 1   
    34    15    24 1   
    35    15    25 1   
    36    16    17 1   
    37    16    36 1   
    38    16    37 1   
    39    17    38 1   
    40    17    39 1   
    41    18    22 1   
    42    18    40 1   
    43    19    41 1   
    44    22    23 2   
@<TRIPOS>SUBSTRUCTURE
     1 WG3         1 TEMP              0 ****  ****    0 ROOT
