@<TRIPOS>MOLECULE
WG3
   41    44     1     0     0
SMALL
No Charge or Current Charge


@<TRIPOS>ATOM
      1 C02          0.1210     4.6350    20.4130 ca         1 WG3      -0.185000
      2 C04          1.8200     4.7980    18.6960 ca         1 WG3      -0.168000
      3 C05          2.6450     5.5690    19.5480 ca         1 WG3       0.083000
      4 C06          2.1950     5.8620    20.8670 ca         1 WG3      -0.274500
      5 C07          0.9290     5.3820    21.2810 ca         1 WG3      -0.036000
      6 N09          4.3110     6.8170    21.8330 nc         1 WG3      -0.775000
      7 C10          4.5030     7.5000    23.0010 cc         1 WG3       0.615300
      8 O12          2.4010     7.1190    22.9590 os         1 WG3      -0.122700
      9 C13          5.8530     7.9480    23.4150 cx         1 WG3      -0.194000
     10 C15          5.9010     6.6370    17.7930 ce         1 WG3      -0.295400
     11 C17          6.7180     7.0770    16.7750 cf         1 WG3      -0.008400
     12 C18          8.1330     7.2570    17.3670 c5         1 WG3      -0.064200
     13 C19          8.1200     6.3530    18.6200 c5         1 WG3      -0.082400
     14 C20          6.6650     6.5280    19.1210 c5         1 WG3      -0.029200
     15 C21          6.4530     7.3640    15.3040 c          1 WG3       0.716200
     16 C24          7.1170     7.3730    22.8050 cx         1 WG3      -0.101900
     17 C25          6.6960     8.7890    22.4780 cx         1 WG3      -0.101900
     18 N01          3.9130     6.0340    19.1060 ns         1 WG3      -0.157000
     19 C03          0.5660     4.3390    19.1220 ca         1 WG3      -0.047000
     20 C08          3.0140     6.6070    21.8550 cd         1 WG3       0.600500
     21 N11          3.4180     7.7220    23.7250 nd         1 WG3      -0.401300
     22 C14          4.4390     6.2330    17.8360 c          1 WG3       0.641300
     23 O16          3.7620     6.1030    16.8270 o          1 WG3      -0.552100
     24 O22          5.3220     7.2890    14.8490 o          1 WG3      -0.705000
     25 O23          7.4030     7.7080    14.6120 o          1 WG3      -0.705000
     26 H27         -0.8490     4.2750    20.7490 ha         1 WG3       0.109000
     27 H29          2.1450     4.5270    17.6960 ha         1 WG3       0.171000
     28 H30          0.5610     5.5770    22.2870 ha         1 WG3       0.117000
     29 H31          5.8950     8.2000    24.4710 hc         1 WG3       0.094700
     30 H32          8.9240     6.9600    16.6690 hc         1 WG3       0.060200
     31 H33          8.3090     8.3070    17.6300 hc         1 WG3       0.060200
     32 H35          8.3160     5.3090    18.3500 hc         1 WG3       0.028700
     33 H34          8.8650     6.6470    19.3670 hc         1 WG3       0.028700
     34 H36          6.5460     7.4410    19.7130 hc         1 WG3       0.029200
     35 H37          6.3690     5.6740    19.7410 hc         1 WG3       0.029200
     36 H39          7.9780     7.2400    23.4570 hc         1 WG3       0.081950
     37 H40          7.0230     6.6170    22.0300 hc         1 WG3       0.081950
     38 H41          6.3070     8.9910    21.4830 hc         1 WG3       0.081950
     39 H42          7.2750     9.6020    22.9090 hc         1 WG3       0.081950
     40 H26          4.5490     6.2580    19.8620 hn         1 WG3       0.187000
     41 H28         -0.0560     3.7480    18.4520 ha         1 WG3       0.111000
@<TRIPOS>BOND
     1     1     5 ar  
     2     1    19 ar  
     3     1    26 1   
     4     2     3 ar  
     5     2    19 ar  
     6     2    27 1   
     7     3     4 ar  
     8     3    18 1   
     9     4     5 ar  
    10     4    20 1   
    11     5    28 1   
    12     6     7 1   
    13     6    20 2   
    14     7     9 1   
    15     7    21 2   
    16     8    20 1   
    17     8    21 1   
    18     9    16 1   
    19     9    17 1   
    20     9    29 1   
    21    10    11 2   
    22    10    14 1   
    23    10    22 1   
    24    11    12 1   
    25    11    15 1   
    26    12    13 1   
    27    12    30 1   
    28    12    31 1   
    29    13    14 1   
    30    13    32 1   
    31    13    33 1   
    32    14    34 1   
    33    14    35 1   
    34    15    24 1   
    35    15    25 1   
    36    16    17 1   
    37    16    36 1   
    38    16    37 1   
    39    17    38 1   
    40    17    39 1   
    41    18    22 1   
    42    18    40 1   
    43    19    41 1   
    44    22    23 2   
@<TRIPOS>SUBSTRUCTURE
     1 WG3         1 TEMP              0 ****  ****    0 ROOT
