@<TRIPOS>MOLECULE
WG4
   54    58     1     0     0
SMALL
bcc


@<TRIPOS>ATOM
      1 C1          54.7240    -0.2490   273.0870 c3         1 WG4      -0.174100
      2 C2          53.8040    -1.4090   272.8470 c          1 WG4       0.672100
      3 C5          53.7950    -3.7520   272.2140 cc         1 WG4       0.535300
      4 C7          53.5950    -5.8550   271.6610 cd         1 WG4       0.370200
      5 C8          52.2740    -5.6070   271.8450 cc         1 WG4      -0.236700
      6 N10         50.6310    -7.1480   272.9440 n3         1 WG4      -0.727600
      7 C11         49.9400    -6.2670   273.8640 c5         1 WG4       0.162800
      8 C12         49.7230    -7.1440   275.1010 c5         1 WG4      -0.065400
      9 C15         52.1850    -9.9510   275.9350 c5         1 WG4       0.229800
     10 C17         50.1070    -9.6530   274.7340 c5         1 WG4       0.241800
     11 C18         51.1210   -11.8860   274.8080 cc         1 WG4       0.726200
     12 C19         52.2190   -12.7370   275.1720 cc         1 WG4      -0.340300
     13 N22         51.1060   -14.4940   274.1390 na         1 WG4      -0.156100
     14 C23         50.7760   -15.7420   273.6500 cc         1 WG4      -0.252100
     15 C24         49.5680   -15.5650   273.0480 cd         1 WG4       0.033600
     16 O3          52.5930    -1.3640   272.9580 o          1 WG4      -0.569100
     17 N4          54.4310    -2.5650   272.4850 ns         1 WG4      -0.542400
     18 N6          54.4520    -4.8120   271.8680 nd         1 WG4      -0.709000
     19 C9          51.1290    -6.5720   271.7160 c3         1 WG4       0.262100
     20 C13         50.7520    -8.2870   274.9720 c5         1 WG4      -0.076000
     21 C14         51.6150    -8.5620   276.2000 c5         1 WG4      -0.085400
     22 N16         51.1390   -10.5890   275.1470 nh         1 WG4      -0.793300
     23 C20         52.1960   -14.0470   274.8260 cd         1 WG4       0.050400
     24 N25         49.1320   -14.2740   273.1390 nd         1 WG4      -0.298600
     25 C26         50.0710   -13.6340   273.8020 cd         1 WG4       0.447500
     26 N27         50.0800   -12.3420   274.1370 nd         1 WG4      -0.742000
     27 C28         51.5850    -7.8710   273.7510 c5         1 WG4       0.171800
     28 S29         52.0800    -3.9470   272.3120 ss         1 WG4      -0.093300
     29 H1          54.1510     0.6410   273.3320 hc         1 WG4       0.070033
     30 H3          55.4070    -0.4670   273.9080 hc         1 WG4       0.070033
     31 H2          55.3300    -0.0500   272.2020 hc         1 WG4       0.070033
     32 H5          53.9950    -6.8140   271.3580 h4         1 WG4       0.039100
     33 H8          50.5420    -5.3880   274.1410 h1         1 WG4       0.041700
     34 H9          49.0090    -5.8990   273.4250 h1         1 WG4       0.041700
     35 H11         49.8670    -6.5720   276.0190 hc         1 WG4       0.052700
     36 H10         48.7070    -7.5420   275.1330 hc         1 WG4       0.052700
     37 H14         52.3830   -10.4960   276.8600 h1         1 WG4       0.044200
     38 H15         53.1240    -9.9000   275.3740 h1         1 WG4       0.044200
     39 H16         49.2030    -9.7750   275.3410 h1         1 WG4       0.071700
     40 H17         49.8270    -9.8030   273.6900 h1         1 WG4       0.071700
     41 H18         53.0770   -12.3540   275.7040 ha         1 WG4       0.149000
     42 H19         53.6860   -15.4500   274.2200 hc         1 WG4       0.060367
     43 H21         54.0810   -14.5370   275.6800 hc         1 WG4       0.060367
     44 H20         52.8960   -15.8470   275.7410 hc         1 WG4       0.060367
     45 H22         51.4050   -16.6060   273.7730 h4         1 WG4       0.175000
     46 H23         48.9820   -16.3210   272.5470 h4         1 WG4       0.172000
     47 H4          55.4380    -2.5820   272.4000 hn         1 WG4       0.339500
     48 H6          50.2920    -6.0990   271.1960 h1         1 WG4       0.065200
     49 H7          51.4680    -7.3880   271.0720 h1         1 WG4       0.065200
     50 H12         52.3960    -7.8160   276.3480 hc         1 WG4       0.058200
     51 H13         50.9940    -8.5780   277.1000 hc         1 WG4       0.058200
     52 H24         52.0010    -8.7200   273.2010 h1         1 WG4       0.043700
     53 H25         52.4330    -7.2440   274.0730 h1         1 WG4       0.043700
     54 C21         53.2750   -15.0210   275.1350 c3         1 WG4      -0.062800
@<TRIPOS>BOND
     1     1     2 1   
     2     1    29 1   
     3     1    30 1   
     4     1    31 1   
     5     2    16 2   
     6     2    17 1   
     7     3    17 1   
     8     3    18 2   
     9     3    28 1   
    10     4     5 2   
    11     4    18 1   
    12     4    32 1   
    13     5    19 1   
    14     5    28 1   
    15     6     7 1   
    16     6    19 1   
    17     6    27 1   
    18     7     8 1   
    19     7    33 1   
    20     7    34 1   
    21     8    20 1   
    22     8    35 1   
    23     8    36 1   
    24     9    21 1   
    25     9    22 1   
    26     9    37 1   
    27     9    38 1   
    28    10    20 1   
    29    10    22 1   
    30    10    39 1   
    31    10    40 1   
    32    11    12 1   
    33    11    22 1   
    34    11    26 2   
    35    12    23 2   
    36    12    41 1   
    37    13    14 1   
    38    13    23 1   
    39    13    25 1   
    40    14    15 2   
    41    14    45 1   
    42    15    24 1   
    43    15    46 1   
    44    17    47 1   
    45    19    48 1   
    46    19    49 1   
    47    20    21 1   
    48    20    27 1   
    49    21    50 1   
    50    21    51 1   
    51    23    54 1   
    52    24    25 2   
    53    25    26 1   
    54    27    52 1   
    55    27    53 1   
    56    42    54 1   
    57    43    54 1   
    58    44    54 1   
@<TRIPOS>SUBSTRUCTURE
     1 WG4         1 TEMP              0 ****  ****    0 ROOT
