@<TRIPOS>MOLECULE
WG4
   54    58     1     0     0
SMALL
No Charge or Current Charge


@<TRIPOS>ATOM
      1 C1          55.5980    -1.1650   272.7320 c3         1 WG4      -0.174100
      2 C2          54.2980    -1.9530   272.6530 c          1 WG4       0.605100
      3 C5          53.4930    -4.2250   272.1130 cc         1 WG4       0.535300
      4 C7          52.8210    -6.2810   271.6240 cd         1 WG4       0.304900
      5 C8          51.6000    -5.7240   271.9230 cc         1 WG4      -0.316300
      6 N10         49.8740    -7.0310   273.1520 n3         1 WG4      -0.727600
      7 C11         49.7300    -6.1460   274.3330 c5         1 WG4       0.162800
      8 C12         49.2560    -7.1820   275.3790 c5         1 WG4      -0.065400
      9 C15         52.1380    -9.6430   275.8560 c5         1 WG4       0.229800
     10 C17         49.6850    -9.7320   275.3930 c5         1 WG4       0.241800
     11 C18         51.1730   -11.6680   275.0120 cc         1 WG4       0.660900
     12 C19         52.0190   -12.6150   275.6750 cc         1 WG4      -0.257000
     13 N22         51.8290   -13.9930   273.8250 na         1 WG4      -0.105400
     14 C23         51.9960   -15.0730   273.0030 cc         1 WG4      -0.302100
     15 C24         51.2420   -14.7180   271.8900 cd         1 WG4      -0.016400
     16 O3          53.2190    -1.4440   272.9080 o          1 WG4      -0.569100
     17 N4          54.4510    -3.2610   272.2760 ns         1 WG4      -0.475400
     18 N6          53.9050    -5.4220   271.7390 nd         1 WG4      -0.709000
     19 C9          50.2560    -6.3940   271.8750 c3         1 WG4       0.262100
     20 C13         50.2780    -8.3260   275.1080 c5         1 WG4      -0.076000
     21 C14         51.5100    -8.2370   276.0560 c5         1 WG4      -0.085400
     22 N16         50.9310   -10.5070   275.7190 nh         1 WG4      -0.793300
     23 C20         52.3750   -13.8150   275.0990 cd         1 WG4      -0.000300
     24 N25         50.6300   -13.4620   272.0210 nd         1 WG4      -0.298600
     25 C26         51.0270   -13.0350   273.2620 cd         1 WG4       0.447500
     26 N27         50.6510   -11.8240   273.8110 nd         1 WG4      -0.742000
     27 C28         50.7140    -8.1720   273.6100 c5         1 WG4       0.171800
     28 S29         51.7650    -4.0420   272.3410 ss         1 WG4       0.051600
     29 H1          55.4410    -0.1240   273.0360 hc         1 WG4       0.070033
     30 H3          56.2900    -1.6820   273.4070 hc         1 WG4       0.070033
     31 H2          56.1160    -1.2310   271.7690 hc         1 WG4       0.070033
     32 H5          52.9850    -7.3080   271.3200 h4         1 WG4       0.039100
     33 H8          50.6840    -5.6840   274.6230 h1         1 WG4       0.041700
     34 H9          48.9900    -5.3500   274.1750 h1         1 WG4       0.041700
     35 H11         49.2840    -6.7940   276.4030 hc         1 WG4       0.052700
     36 H10         48.2250    -7.4960   275.1730 hc         1 WG4       0.052700
     37 H14         52.7640    -9.9310   276.7120 h1         1 WG4       0.044200
     38 H15         52.7620    -9.6780   274.9510 h1         1 WG4       0.044200
     39 H16         49.0210    -9.7060   276.2690 h1         1 WG4       0.071700
     40 H17         49.0870   -10.1060   274.5500 h1         1 WG4       0.071700
     41 H18         52.3770   -12.3670   276.6660 ha         1 WG4       0.131000
     42 H19         54.1530   -15.0430   275.1320 hc         1 WG4       0.060367
     43 H21         53.5910   -14.5460   276.7340 hc         1 WG4       0.060367
     44 H20         52.7240   -15.8100   275.8510 hc         1 WG4       0.060367
     45 H22         52.5890   -15.9520   273.2360 h4         1 WG4       0.225000
     46 H23         51.1020   -15.3070   270.9850 h4         1 WG4       0.222000
     47 H4          55.4000    -3.5500   272.0960 hn         1 WG4       0.339500
     48 H6          49.5010    -5.6470   271.5930 h1         1 WG4       0.065200
     49 H7          50.2660    -7.1460   271.0730 h1         1 WG4       0.065200
     50 H12         52.2030    -7.4260   275.8080 hc         1 WG4       0.058200
     51 H13         51.2060    -8.1000   277.1000 hc         1 WG4       0.058200
     52 H24         50.5250    -9.0750   273.0130 h1         1 WG4       0.043700
     53 H25         51.7850    -7.9410   273.5320 h1         1 WG4       0.043700
     54 C21         53.2570   -14.8590   275.7380 c3         1 WG4      -0.062800
@<TRIPOS>BOND
     1     1     2 1   
     2     1    29 1   
     3     1    30 1   
     4     1    31 1   
     5     2    16 2   
     6     2    17 1   
     7     3    17 1   
     8     3    18 2   
     9     3    28 1   
    10     4     5 2   
    11     4    18 1   
    12     4    32 1   
    13     5    19 1   
    14     5    28 1   
    15     6     7 1   
    16     6    19 1   
    17     6    27 1   
    18     7     8 1   
    19     7    33 1   
    20     7    34 1   
    21     8    20 1   
    22     8    35 1   
    23     8    36 1   
    24     9    21 1   
    25     9    22 1   
    26     9    37 1   
    27     9    38 1   
    28    10    20 1   
    29    10    22 1   
    30    10    39 1   
    31    10    40 1   
    32    11    12 1   
    33    11    22 1   
    34    11    26 2   
    35    12    23 2   
    36    12    41 1   
    37    13    14 1   
    38    13    23 1   
    39    13    25 1   
    40    14    15 2   
    41    14    45 1   
    42    15    24 1   
    43    15    46 1   
    44    17    47 1   
    45    19    48 1   
    46    19    49 1   
    47    20    21 1   
    48    20    27 1   
    49    21    50 1   
    50    21    51 1   
    51    23    54 1   
    52    24    25 2   
    53    25    26 1   
    54    27    52 1   
    55    27    53 1   
    56    42    54 1   
    57    43    54 1   
    58    44    54 1   
@<TRIPOS>SUBSTRUCTURE
     1 WG4         1 TEMP              0 ****  ****    0 ROOT
