@<TRIPOS>MOLECULE
WG5
   36    38     1     0     0
SMALL
No Charge or Current Charge


@<TRIPOS>ATOM
      1 C4         145.6540   142.6190   167.1480 ca         1 WG5      -0.033000
      2 C5         146.9380   142.9930   166.7000 ca         1 WG5       0.045600
      3 C6         148.0710   142.3830   167.2690 ca         1 WG5      -0.051000
      4 C8         146.5230   145.2850   165.8200 c          1 WG5       0.580200
      5 C10        146.8240   146.1140   164.6440 cc         1 WG5      -0.235600
      6 C13        145.9040   149.7340   163.7720 ca         1 WG5      -0.084500
      7 C15        146.6800   150.6420   161.6320 ca         1 WG5      -0.079600
      8 C17        147.2110   148.3380   162.2890 ca         1 WG5      -0.084500
      9 C22        147.7820   143.7770   164.5150 cs         1 WG5       0.326000
     10 C1         147.9230   141.4080   168.2690 ca         1 WG5      -0.115000
     11 C11        146.3910   147.4140   164.5250 cf         1 WG5       0.058800
     12 C12        146.5150   148.4900   163.5070 ca         1 WG5      -0.159800
     13 C14        145.9840   150.7930   162.8510 ca         1 WG5      -0.106000
     14 C16        147.2910   149.3960   161.3670 ca         1 WG5      -0.106000
     15 C2         146.6420   141.0340   168.7080 ca         1 WG5      -0.056000
     16 C3         145.4930   141.6320   168.1460 ca         1 WG5      -0.196300
     17 N7         147.0840   144.0040   165.6870 n          1 WG5      -0.242600
     18 O19        146.2220   152.8480   160.9060 o          1 WG5      -0.703500
     19 O20        147.3820   151.6090   159.5880 o          1 WG5      -0.703500
     20 S21        147.7720   145.2230   163.4840 ss         1 WG5       0.001800
     21 H1         144.7800   143.0970   166.7110 ha         1 WG5       0.144000
     22 H2         149.0690   142.6710   166.9460 ha         1 WG5       0.133000
     23 H3         145.3590   149.8900   164.7000 ha         1 WG5       0.095500
     24 H4         147.7000   147.4080   162.0290 ha         1 WG5       0.095500
     25 H5         148.8030   140.9440   168.7080 ha         1 WG5       0.121000
     26 H6         145.8130   147.7390   165.3930 ha         1 WG5       0.188000
     27 H8         145.4990   151.7370   163.0920 ha         1 WG5       0.138500
     28 H9         147.8360   149.2420   160.4370 ha         1 WG5       0.138500
     29 H10        146.5490   140.2810   169.4890 ha         1 WG5       0.125000
     30 C24        144.0910   141.2420   168.6250 c3         1 WG5       0.359300
     31 O9         145.8800   145.6510   166.7940 o          1 WG5      -0.494000
     32 S23        148.5060   142.3430   164.0300 s          1 WG5      -0.466400
     33 C18        146.7680   151.7870   160.6320 c          1 WG5       0.709600
     34 F25        143.6520   142.0800   169.5900 f          1 WG5      -0.114333
     35 F26        143.1810   141.2800   167.6240 f          1 WG5      -0.114333
     36 F27        144.0460   139.9910   169.1370 f          1 WG5      -0.114333
@<TRIPOS>BOND
     1     1     2 ar  
     2     1    16 ar  
     3     1    21 1   
     4     2     3 ar  
     5     2    17 1   
     6     3    10 ar  
     7     3    22 1   
     8     4     5 1   
     9     4    17 1   
    10     4    31 2   
    11     5    11 2   
    12     5    20 1   
    13     6    12 ar  
    14     6    13 ar  
    15     6    23 1   
    16     7    13 ar  
    17     7    14 ar  
    18     7    33 1   
    19     8    12 ar  
    20     8    14 ar  
    21     8    24 1   
    22     9    17 1   
    23     9    20 1   
    24     9    32 2   
    25    10    15 ar  
    26    10    25 1   
    27    11    12 1   
    28    11    26 1   
    29    13    27 1   
    30    14    28 1   
    31    15    16 ar  
    32    15    29 1   
    33    16    30 1   
    34    18    33 1   
    35    19    33 1   
    36    30    34 1   
    37    30    35 1   
    38    30    36 1   
@<TRIPOS>SUBSTRUCTURE
     1 WG5         1 TEMP              0 ****  ****    0 ROOT
