@<TRIPOS>MOLECULE
WG5
   36    38     1     0     0
SMALL
abcg2


@<TRIPOS>ATOM
      1 C4         145.6380   142.5180   166.9430 ca         1 WG5      -0.033000
      2 C5         146.8750   143.1000   166.7230 ca         1 WG5       0.045600
      3 C6         147.9760   142.7710   167.4940 ca         1 WG5      -0.051000
      4 C8         146.7030   145.4120   165.9440 c          1 WG5       0.580200
      5 C10        146.8840   146.1990   164.7130 cc         1 WG5      -0.235600
      6 C13        146.1660   149.7670   163.8970 ca         1 WG5      -0.084500
      7 C15        146.6590   150.5050   161.6540 ca         1 WG5      -0.079600
      8 C17        147.1800   148.2430   162.3430 ca         1 WG5      -0.084500
      9 C22        147.3970   143.7420   164.4300 cs         1 WG5       0.326000
     10 C1         147.8340   141.8370   168.5090 ca         1 WG5      -0.115000
     11 C11        146.6080   147.5150   164.6950 cf         1 WG5       0.058800
     12 C12        146.6680   148.4870   163.6250 ca         1 WG5      -0.159800
     13 C14        146.1610   150.7540   162.9300 ca         1 WG5      -0.106000
     14 C16        147.1700   149.2360   161.3820 ca         1 WG5      -0.106000
     15 C2         146.6040   141.2450   168.7460 ca         1 WG5      -0.056000
     16 C3         145.5070   141.5850   167.9620 ca         1 WG5      -0.196300
     17 N7         147.0010   144.0710   165.6910 n          1 WG5      -0.242600
     18 O19        146.2120   152.7050   160.9290 o          1 WG5      -0.703500
     19 O20        147.0810   151.2640   159.4600 o          1 WG5      -0.703500
     20 S21        147.4240   145.1550   163.4160 ss         1 WG5       0.001800
     21 H1         144.8020   142.7980   166.3170 ha         1 WG5       0.144000
     22 H2         148.9330   143.2400   167.3030 ha         1 WG5       0.133000
     23 H3         145.7710   149.9810   164.8830 ha         1 WG5       0.095500
     24 H4         147.6080   147.2870   162.0760 ha         1 WG5       0.095500
     25 H5         148.6860   141.5700   169.1180 ha         1 WG5       0.121000
     26 H6         146.2640   147.9100   165.6460 ha         1 WG5       0.188000
     27 H8         145.7650   151.7320   163.1670 ha         1 WG5       0.138500
     28 H9         147.5690   149.0250   160.3990 ha         1 WG5       0.138500
     29 H10        146.5120   140.5180   169.5420 ha         1 WG5       0.125000
     30 C24        144.1720   140.9720   168.2540 c3         1 WG5       0.359300
     31 O9         146.3500   145.8100   167.0230 o          1 WG5      -0.494000
     32 S23        147.8010   142.2570   163.8900 s          1 WG5      -0.466400
     33 C18        146.6500   151.5940   160.5800 c          1 WG5       0.709600
     34 F25        143.5730   141.5740   169.2920 f          1 WG5      -0.114333
     35 F26        143.3340   141.0610   167.2190 f          1 WG5      -0.114333
     36 F27        144.2790   139.6760   168.5670 f          1 WG5      -0.114333
@<TRIPOS>BOND
     1     1     2 ar  
     2     1    16 ar  
     3     1    21 1   
     4     2     3 ar  
     5     2    17 1   
     6     3    10 ar  
     7     3    22 1   
     8     4     5 1   
     9     4    17 1   
    10     4    31 2   
    11     5    11 2   
    12     5    20 1   
    13     6    12 ar  
    14     6    13 ar  
    15     6    23 1   
    16     7    13 ar  
    17     7    14 ar  
    18     7    33 1   
    19     8    12 ar  
    20     8    14 ar  
    21     8    24 1   
    22     9    17 1   
    23     9    20 1   
    24     9    32 2   
    25    10    15 ar  
    26    10    25 1   
    27    11    12 1   
    28    11    26 1   
    29    13    27 1   
    30    14    28 1   
    31    15    16 ar  
    32    15    29 1   
    33    16    30 1   
    34    18    33 1   
    35    19    33 1   
    36    30    34 1   
    37    30    35 1   
    38    30    36 1   
@<TRIPOS>SUBSTRUCTURE
     1 WG5         1 TEMP              0 ****  ****    0 ROOT
