@<TRIPOS>MOLECULE
WG8
   28    30     1     0     0
SMALL
No Charge or Current Charge


@<TRIPOS>ATOM
      1 CAF         -0.5980    -1.7800     0.6140 ca         1 WG8      -0.105000
      2 CAH         -1.9510    -2.1530     0.6500 ca         1 WG8      -0.093000
      3 CAQ         -2.9190    -1.2050     0.2810 ca         1 WG8      -0.045000
      4 CAG         -4.2870    -1.5400     0.3030 ca         1 WG8      -0.143000
      5 CAD         -5.2540    -0.5910    -0.0660 ca         1 WG8      -0.074000
      6 CAE         -4.8540     0.6970    -0.4590 ca         1 WG8      -0.186000
      7 CAO         -3.4910     1.0320    -0.4820 ca         1 WG8       0.181100
      8 OAC         -3.1060     2.2860    -0.8630 oh         1 WG8      -0.536100
      9 CAR         -2.5000     0.0900    -0.1130 ca         1 WG8       0.197000
     10 NAK         -1.1870     0.4420    -0.1450 nb         1 WG8      -0.685000
     11 CAP         -0.2360    -0.4730     0.2140 ca         1 WG8       0.380700
     12 CAN          1.2280    -0.0570     0.1710 ce         1 WG8       0.354200
     13 N            2.1840    -0.8660     0.5350 n2         1 WG8      -0.499900
     14 SAL          1.6560     1.6680    -0.1090 ss         1 WG8      -0.413200
     15 CB           3.1660     1.3370     0.8880 c5         1 WG8       0.065600
     16 CA           3.5020    -0.1310     0.5200 c5         1 WG8      -0.054500
     17 C            4.2710    -0.1570    -0.8540 c          1 WG8       0.737000
     18 O            3.7820    -0.7240    -1.8240 o          1 WG8      -0.696500
     19 OXT          5.3910     0.3330    -0.8980 o          1 WG8      -0.696500
     20 HAF          0.1660    -2.4990     0.8960 ha         1 WG8       0.152000
     21 HAH         -2.2380    -3.1560     0.9570 ha         1 WG8       0.112000
     22 HAG         -4.6020    -2.5360     0.6060 ha         1 WG8       0.108000
     23 HAD         -6.3100    -0.8530    -0.0480 ha         1 WG8       0.101000
     24 HAE         -5.6000     1.4350    -0.7460 ha         1 WG8       0.120000
     25 HAC         -2.1220     2.2740    -0.7960 ho         1 WG8       0.509000
     26 HA           4.1810    -0.5640     1.2660 h1         1 WG8       0.075700
     27 HB1C         3.9710     2.0450     0.6490 h1         1 WG8       0.066700
     28 HB2C         2.9240     1.4300     1.9550 h1         1 WG8       0.066700
@<TRIPOS>BOND
     1     1     2 ar  
     2     1    11 ar  
     3     1    20 1   
     4     2     3 ar  
     5     2    21 1   
     6     3     4 ar  
     7     3     9 ar  
     8     4     5 ar  
     9     4    22 1   
    10     5     6 ar  
    11     5    23 1   
    12     6     7 ar  
    13     6    24 1   
    14     7     8 1   
    15     7     9 ar  
    16     8    25 1   
    17     9    10 ar  
    18    10    11 ar  
    19    11    12 1   
    20    12    13 2   
    21    12    14 1   
    22    13    16 1   
    23    14    15 1   
    24    15    16 1   
    25    15    27 1   
    26    15    28 1   
    27    16    17 1   
    28    16    26 1   
    29    17    18 1   
    30    17    19 1   
@<TRIPOS>SUBSTRUCTURE
     1 WG8         1 TEMP              0 ****  ****    0 ROOT
