@<TRIPOS>MOLECULE
WG8
   28    30     1     0     0
SMALL
bcc


@<TRIPOS>ATOM
      1 CAF         -0.5720    -1.8130     0.6290 ca         1 WG8      -0.188300
      2 CAH         -1.8760    -2.2080     0.5650 ca         1 WG8      -0.111000
      3 CAQ         -2.8810    -1.2710     0.2280 ca         1 WG8      -0.110300
      4 CAG         -4.2530    -1.5810     0.1370 ca         1 WG8      -0.161000
      5 CAD         -5.1430    -0.5930    -0.2000 ca         1 WG8      -0.092000
      6 CAE         -4.7240     0.7270    -0.4590 ca         1 WG8      -0.204000
      7 CAO         -3.3940     1.0540    -0.3740 ca         1 WG8       0.115800
      8 OAC         -2.9630     2.2970    -0.6130 oh         1 WG8      -0.497100
      9 CAR         -2.4490     0.0490    -0.0250 ca         1 WG8       0.327600
     10 NAK         -1.1600     0.4280     0.0500 nb         1 WG8      -0.685000
     11 CAP         -0.2540    -0.4610     0.3640 ca         1 WG8       0.446000
     12 CAN          1.1360     0.0090     0.4260 ce         1 WG8       0.354200
     13 N            2.1190    -0.7360     0.6850 n2         1 WG8      -0.499900
     14 SAL          1.4560     1.7240     0.1050 ss         1 WG8      -0.365300
     15 CB           3.1470     1.4600     0.7210 c5         1 WG8       0.017700
     16 CA           3.3830    -0.0490     0.5490 c5         1 WG8      -0.054500
     17 C            4.0510    -0.3690    -0.8280 c          1 WG8       0.947600
     18 O            3.4860    -1.1860    -1.5680 o          1 WG8      -0.801800
     19 OXT          5.1150     0.2430    -1.0330 o          1 WG8      -0.801800
     20 HAF          0.2160    -2.5090     0.8790 ha         1 WG8       0.170000
     21 HAH         -2.1500    -3.2350     0.7680 ha         1 WG8       0.130000
     22 HAG         -4.5900    -2.5900     0.3350 ha         1 WG8       0.126000
     23 HAD         -6.1980    -0.8220    -0.2720 ha         1 WG8       0.119000
     24 HAE         -5.4520     1.4840    -0.7220 ha         1 WG8       0.138000
     25 HAC         -1.9990     2.3050    -0.4940 ho         1 WG8       0.470000
     26 HA           4.0690    -0.3950     1.3280 h1         1 WG8       0.075700
     27 HB1C         3.8580     2.0550     0.1550 h1         1 WG8       0.066700
     28 HB2C         3.1880     1.7670     1.7670 h1         1 WG8       0.066700
@<TRIPOS>BOND
     1     1     2 ar  
     2     1    11 ar  
     3     1    20 1   
     4     2     3 ar  
     5     2    21 1   
     6     3     4 ar  
     7     3     9 ar  
     8     4     5 ar  
     9     4    22 1   
    10     5     6 ar  
    11     5    23 1   
    12     6     7 ar  
    13     6    24 1   
    14     7     8 1   
    15     7     9 ar  
    16     8    25 1   
    17     9    10 ar  
    18    10    11 ar  
    19    11    12 1   
    20    12    13 2   
    21    12    14 1   
    22    13    16 1   
    23    14    15 1   
    24    15    16 1   
    25    15    27 1   
    26    15    28 1   
    27    16    17 1   
    28    16    26 1   
    29    17    18 1   
    30    17    19 1   
@<TRIPOS>SUBSTRUCTURE
     1 WG8         1 TEMP              0 ****  ****    0 ROOT
