@<TRIPOS>MOLECULE
WGA
   30    31     1     0     0
SMALL
No Charge or Current Charge


@<TRIPOS>ATOM
      1 C10         33.4300     6.1900   -41.8870 ca         1 WGA      -0.068000
      2 C13         29.4790     4.1300   -42.3220 c5         1 WGA       0.234800
      3 C02         27.4380     5.0140   -41.3200 c5         1 WGA      -0.101000
      4 C03         27.0050     5.9460   -42.4950 c3         1 WGA      -0.083100
      5 C04         28.6540     5.5980   -40.5280 c5         1 WGA       0.242800
      6 N05         29.8130     5.2510   -41.3970 nh         1 WGA      -0.789300
      7 C06         31.1110     5.7950   -41.2400 ca         1 WGA       0.617900
      8 N07         31.2440     6.5480   -40.1250 nb         1 WGA      -0.749000
      9 C08         32.4440     7.1160   -39.8770 ca         1 WGA       0.377900
     10 C09         33.5550     6.9630   -40.7220 ca         1 WGA      -0.210000
     11 C11         32.1890     5.5940   -42.1570 ca         1 WGA       0.037000
     12 F12         32.0590     4.8600   -43.2910 f          1 WGA      -0.188000
     13 C14         28.0630     3.6660   -41.8310 c5         1 WGA       0.153300
     14 O15         28.1420     2.6610   -40.8050 oh         1 WGA      -0.660000
     15 H1          34.2700     6.0580   -42.5650 ha         1 WGA       0.131000
     16 H2          30.2040     3.3060   -42.2610 h1         1 WGA       0.067200
     17 H3          29.4390     4.4710   -43.3660 h1         1 WGA       0.067200
     18 H4          26.4110     4.2450   -39.5160 hc         1 WGA       0.040533
     19 H5          25.7860     5.7900   -40.0840 hc         1 WGA       0.040533
     20 H6          25.3810     4.3040   -40.9570 hc         1 WGA       0.040533
     21 H7          26.6160     6.9010   -42.1200 hc         1 WGA       0.040533
     22 H8          27.8340     6.1850   -43.1710 hc         1 WGA       0.040533
     23 H9          26.2150     5.4820   -43.0980 hc         1 WGA       0.040533
     24 H10         28.7530     5.1270   -39.5390 h1         1 WGA       0.060700
     25 H11         28.5460     6.6820   -40.3790 h1         1 WGA       0.060700
     26 H12         32.5180     7.7140   -38.9690 h4         1 WGA       0.018100
     27 H13         34.4960     7.4440   -40.4720 ha         1 WGA       0.127000
     28 H14         27.4860     3.2660   -42.6770 h1         1 WGA       0.050700
     29 H15         27.2190     2.4470   -40.5480 ho         1 WGA       0.444000
     30 C01         26.1840     4.8240   -40.4190 c3         1 WGA      -0.083100
@<TRIPOS>BOND
     1     1    10 ar  
     2     1    11 ar  
     3     1    15 1   
     4     2     6 1   
     5     2    13 1   
     6     2    16 1   
     7     2    17 1   
     8     3     4 1   
     9     3     5 1   
    10     3    13 1   
    11     3    30 1   
    12     4    21 1   
    13     4    22 1   
    14     4    23 1   
    15     5     6 1   
    16     5    24 1   
    17     5    25 1   
    18     6     7 1   
    19     7     8 ar  
    20     7    11 ar  
    21     8     9 ar  
    22     9    10 ar  
    23     9    26 1   
    24    10    27 1   
    25    11    12 1   
    26    13    14 1   
    27    13    28 1   
    28    14    29 1   
    29    18    30 1   
    30    19    30 1   
    31    20    30 1   
@<TRIPOS>SUBSTRUCTURE
     1 WGA         1 TEMP              0 ****  ****    0 ROOT
