@<TRIPOS>MOLECULE
WGA
   30    31     1     0     0
SMALL
abcg2


@<TRIPOS>ATOM
      1 C10         33.3830     6.0510   -41.7690 ca         1 WGA      -0.068000
      2 C13         29.4510     4.2160   -42.3780 c5         1 WGA       0.234800
      3 C02         27.4390     5.0450   -41.3270 c5         1 WGA      -0.101000
      4 C03         26.9320     5.9060   -42.4910 c3         1 WGA      -0.083100
      5 C04         28.6430     5.7130   -40.6510 c5         1 WGA       0.242800
      6 N05         29.7700     5.3630   -41.5150 nh         1 WGA      -0.789300
      7 C06         31.0180     5.8320   -41.2590 ca         1 WGA       0.617900
      8 N07         31.1820     6.6180   -40.1810 nb         1 WGA      -0.749000
      9 C08         32.3910     7.1100   -39.8900 ca         1 WGA       0.377900
     10 C09         33.5280     6.8530   -40.6330 ca         1 WGA      -0.210000
     11 C11         32.1430     5.5620   -42.0750 ca         1 WGA       0.037000
     12 F12         31.9960     4.8320   -43.2150 f          1 WGA      -0.188000
     13 C14         28.0810     3.7570   -41.8940 c5         1 WGA       0.153300
     14 O15         28.3050     2.7580   -40.8940 oh         1 WGA      -0.660000
     15 H1          34.2180     5.8220   -42.4190 ha         1 WGA       0.131000
     16 H2          30.1780     3.4130   -42.2660 h1         1 WGA       0.067200
     17 H3          29.4180     4.5070   -43.4290 h1         1 WGA       0.067200
     18 H4          26.6380     4.1940   -39.4880 hc         1 WGA       0.040533
     19 H5          25.9070     5.7250   -39.9660 hc         1 WGA       0.040533
     20 H6          25.4830     4.2480   -40.8330 hc         1 WGA       0.040533
     21 H7          26.5120     6.8390   -42.1110 hc         1 WGA       0.040533
     22 H8          27.7300     6.1570   -43.1910 hc         1 WGA       0.040533
     23 H9          26.1490     5.3810   -43.0440 hc         1 WGA       0.040533
     24 H10         28.7930     5.3220   -39.6390 h1         1 WGA       0.060700
     25 H11         28.5320     6.7950   -40.5770 h1         1 WGA       0.060700
     26 H12         32.4420     7.7420   -39.0100 h4         1 WGA       0.018100
     27 H13         34.4870     7.2640   -40.3530 ha         1 WGA       0.127000
     28 H14         27.4850     3.3380   -42.7100 h1         1 WGA       0.050700
     29 H15         27.4500     2.4370   -40.5830 ho         1 WGA       0.444000
     30 C01         26.3020     4.7800   -40.3450 c3         1 WGA      -0.083100
@<TRIPOS>BOND
     1     1    10 ar  
     2     1    11 ar  
     3     1    15 1   
     4     2     6 1   
     5     2    13 1   
     6     2    16 1   
     7     2    17 1   
     8     3     4 1   
     9     3     5 1   
    10     3    13 1   
    11     3    30 1   
    12     4    21 1   
    13     4    22 1   
    14     4    23 1   
    15     5     6 1   
    16     5    24 1   
    17     5    25 1   
    18     6     7 1   
    19     7     8 ar  
    20     7    11 ar  
    21     8     9 ar  
    22     9    10 ar  
    23     9    26 1   
    24    10    27 1   
    25    11    12 1   
    26    13    14 1   
    27    13    28 1   
    28    14    29 1   
    29    18    30 1   
    30    19    30 1   
    31    20    30 1   
@<TRIPOS>SUBSTRUCTURE
     1 WGA         1 TEMP              0 ****  ****    0 ROOT
