@<TRIPOS>MOLECULE
WGB
   28    28     1     0     0
SMALL
No Charge or Current Charge


@<TRIPOS>ATOM
      1 OXT         -1.2010     2.5910    -2.4130 o          1 WGB      -0.739000
      2 O           -3.1240     1.8420    -1.8160 o          1 WGB      -0.739000
      3 O03          0.6930     6.5340     3.8540 oh         1 WGB      -0.587300
      4 O04         -1.2360     7.4030     2.8910 o          1 WGB      -0.588200
      5 N            0.2970     0.9620    -0.6340 n7         1 WGB      -0.849400
      6 C01         -1.7690     1.2150     0.8210 c3         1 WGB       0.016900
      7 CA          -1.2140     0.9540    -0.6130 c3         1 WGB       0.045500
      8 C04         -0.2600     2.7550     2.1820 ca         1 WGB      -0.096500
      9 C05         -2.2580     3.6910     1.1820 ca         1 WGB      -0.096500
     10 C           -1.9080     1.9050    -1.6810 c          1 WGB       0.727000
     11 C07          0.0560     4.0110     2.7300 ca         1 WGB      -0.159000
     12 C08         -1.9420     4.9470     1.7300 ca         1 WGB      -0.159000
     13 C09         -0.7790     5.1370     2.5160 ca         1 WGB       0.233000
     14 H01         -1.4110     0.4270     1.4940 hc         1 WGB       0.012200
     15 H02         -2.8590     1.0940     0.8030 hc         1 WGB       0.012200
     16 HA          -1.5340    -0.0590    -0.8940 h1         1 WGB      -0.020300
     17 H            0.5840     1.0630    -1.6170 hn         1 WGB       0.434000
     18 H05          0.4000     1.9100     2.3640 ha         1 WGB       0.087500
     19 H06         -3.1610     3.5780     0.5880 ha         1 WGB       0.087500
     20 H07          0.9600     4.0980     3.3250 ha         1 WGB       0.103500
     21 H08         -2.6140     5.7780     1.5390 ha         1 WGB       0.103500
     22 H09          2.0520    -0.1280    -0.1720 h1         1 WGB      -0.007633
     23 H10          0.7150    -0.3670     0.9740 h1         1 WGB      -0.007633
     24 H11          0.6570    -1.1300    -0.6360 h1         1 WGB      -0.007633
     25 C03         -1.4160     2.5860     1.4010 ca         1 WGB      -0.107300
     26 H03          1.2900     6.9870     3.2170 ho         1 WGB       0.394000
     27 N02         -0.4590     6.4370     3.0770 nh         1 WGB      -0.263500
     28 C10          0.9630    -0.2300    -0.0860 c3         1 WGB       0.172100
@<TRIPOS>BOND
     1     1    10 1   
     2     2    10 1   
     3     3    26 1   
     4     3    27 1   
     5     4    27 2   
     6     5     7 1   
     7     5    17 1   
     8     5    28 1   
     9     6     7 1   
    10     6    14 1   
    11     6    15 1   
    12     6    25 1   
    13     7    10 1   
    14     7    16 1   
    15     8    11 ar  
    16     8    18 1   
    17     8    25 ar  
    18     9    12 ar  
    19     9    19 1   
    20     9    25 ar  
    21    11    13 ar  
    22    11    20 1   
    23    12    13 ar  
    24    12    21 1   
    25    13    27 1   
    26    22    28 1   
    27    23    28 1   
    28    24    28 1   
@<TRIPOS>SUBSTRUCTURE
     1 WGB         1 TEMP              0 ****  ****    0 ROOT
