@<TRIPOS>MOLECULE
WGB
   28    28     1     0     0
SMALL
abcg2


@<TRIPOS>ATOM
      1 OXT         -1.2630     2.2730    -2.5360 o          1 WGB      -0.739000
      2 O           -3.2110     1.8400    -1.5450 o          1 WGB      -0.739000
      3 O03          0.3610     6.3400     4.0440 oh         1 WGB      -0.587300
      4 O04         -1.1880     7.3770     2.6880 o          1 WGB      -0.588200
      5 N            0.1890     1.0460    -0.6540 n7         1 WGB      -0.849400
      6 C01         -1.7520     1.2110     0.8610 c3         1 WGB       0.016900
      7 CA          -1.2490     0.9160    -0.5620 c3         1 WGB       0.045500
      8 C04         -0.2640     2.7570     2.1910 ca         1 WGB      -0.096500
      9 C05         -2.1440     3.7050     1.1010 ca         1 WGB      -0.096500
     10 C           -1.9690     1.7720    -1.6380 c          1 WGB       0.727000
     11 C07          0.1030     4.0000     2.6780 ca         1 WGB      -0.159000
     12 C08         -1.7950     4.9620     1.5770 ca         1 WGB      -0.159000
     13 C09         -0.6550     5.1440     2.3730 ca         1 WGB       0.233000
     14 H01         -1.3520     0.4500     1.5380 hc         1 WGB       0.012200
     15 H02         -2.8350     1.0750     0.8680 hc         1 WGB       0.012200
     16 HA          -1.5600    -0.1270    -0.7780 h1         1 WGB      -0.020300
     17 H            0.4230     1.2170    -1.6220 hn         1 WGB       0.434000
     18 H05          0.3440     1.8980     2.4570 ha         1 WGB       0.087500
     19 H06         -3.0340     3.6070     0.4900 ha         1 WGB       0.087500
     20 H07          0.9820     4.0810     3.3030 ha         1 WGB       0.103500
     21 H08         -2.4130     5.8180     1.3450 ha         1 WGB       0.103500
     22 H09          1.9820     0.0230    -0.3700 h1         1 WGB      -0.007633
     23 H10          0.8300    -0.1550     0.9410 h1         1 WGB      -0.007633
     24 H11          0.5920    -1.0580    -0.5550 h1         1 WGB      -0.007633
     25 C03         -1.3900     2.5700     1.3880 ca         1 WGB      -0.107300
     26 H03          1.1330     6.9060     3.9550 ho         1 WGB       0.394000
     27 N02         -0.2630     6.4310     2.7340 nh         1 WGB      -0.263500
     28 C10          0.9200    -0.0890    -0.1460 c3         1 WGB       0.172100
@<TRIPOS>BOND
     1     1    10 1   
     2     2    10 1   
     3     3    26 1   
     4     3    27 1   
     5     4    27 2   
     6     5     7 1   
     7     5    17 1   
     8     5    28 1   
     9     6     7 1   
    10     6    14 1   
    11     6    15 1   
    12     6    25 1   
    13     7    10 1   
    14     7    16 1   
    15     8    11 ar  
    16     8    18 1   
    17     8    25 ar  
    18     9    12 ar  
    19     9    19 1   
    20     9    25 ar  
    21    11    13 ar  
    22    11    20 1   
    23    12    13 ar  
    24    12    21 1   
    25    13    27 1   
    26    22    28 1   
    27    23    28 1   
    28    24    28 1   
@<TRIPOS>SUBSTRUCTURE
     1 WGB         1 TEMP              0 ****  ****    0 ROOT
