@<TRIPOS>MOLECULE
WGD
   31    32     1     0     0
SMALL
No Charge or Current Charge


@<TRIPOS>ATOM
      1 N1          28.3690     4.2620   -41.4530 nc         1 WGD      -0.621000
      2 N3          33.0450     4.3960   -41.7010 n8         1 WGD      -0.985200
      3 C4          29.9940     6.1320   -41.8420 c3         1 WGD       0.168500
      4 C5          30.5590     7.2500   -39.6550 c5         1 WGD       0.151800
      5 C6          31.8800     7.5980   -38.8920 c5         1 WGD       0.189300
      6 C7          32.9680     6.8220   -39.6820 c5         1 WGD      -0.120400
      7 C8          32.3430     6.7520   -41.1010 c5         1 WGD       0.154500
      8 C10         27.5750     6.4050   -41.0140 cd         1 WGD      -0.263000
      9 C1          26.5790     2.6350   -40.9830 c3         1 WGD      -0.131400
     10 C2          27.1290     4.0300   -41.0520 cd         1 WGD       0.448700
     11 C3          28.6250     5.6150   -41.4250 cc         1 WGD       0.287300
     12 N2          30.9760     6.2980   -40.7270 n3         1 WGD      -0.752600
     13 C9          33.1180     5.8240   -42.0950 c3         1 WGD       0.156800
     14 S1          26.1670     5.4370   -40.6160 ss         1 WGD      -0.064400
     15 H1          33.5210     4.2900   -40.7990 hn         1 WGD       0.405000
     16 H2          32.0630     4.2330   -41.4430 hn         1 WGD       0.405000
     17 H4          30.3960     5.4390   -42.5920 h1         1 WGD       0.044700
     18 H5          29.8510     7.0940   -42.3530 h1         1 WGD       0.044700
     19 H6          30.1270     8.1650   -40.0840 h1         1 WGD       0.047700
     20 H7          29.8050     6.8070   -38.9900 h1         1 WGD       0.047700
     21 H8          32.0620     8.6810   -38.9050 h1         1 WGD       0.061700
     22 H9          33.1280     5.8240   -39.2570 hc         1 WGD       0.061200
     23 H10         33.9330     7.3410   -39.6730 hc         1 WGD       0.061200
     24 H11         32.3090     7.7560   -41.5480 h1         1 WGD       0.031700
     25 H12         27.5530     7.4830   -40.9210 h4         1 WGD       0.158000
     26 H13         25.5530     2.6340   -40.5980 hc         1 WGD       0.059700
     27 H14         26.5670     2.1720   -41.9760 hc         1 WGD       0.059700
     28 H15         27.1880     2.0090   -40.3220 hc         1 WGD       0.059700
     29 H17         32.6700     5.9320   -43.0930 h1         1 WGD       0.048200
     30 H18         34.1690     6.1380   -42.1590 h1         1 WGD       0.048200
     31 F1          31.8360     7.1750   -37.5600 f          1 WGD      -0.262000
@<TRIPOS>BOND
     1     1    10 2   
     2     1    11 1   
     3     2    13 1   
     4     2    15 1   
     5     2    16 1   
     6     3    11 1   
     7     3    12 1   
     8     3    17 1   
     9     3    18 1   
    10     4     5 1   
    11     4    12 1   
    12     4    19 1   
    13     4    20 1   
    14     5     6 1   
    15     5    21 1   
    16     5    31 1   
    17     6     7 1   
    18     6    22 1   
    19     6    23 1   
    20     7    12 1   
    21     7    13 1   
    22     7    24 1   
    23     8    11 2   
    24     8    14 1   
    25     8    25 1   
    26     9    10 1   
    27     9    26 1   
    28     9    27 1   
    29     9    28 1   
    30    10    14 1   
    31    13    29 1   
    32    13    30 1   
@<TRIPOS>SUBSTRUCTURE
     1 WGD         1 TEMP              0 ****  ****    0 ROOT
