@<TRIPOS>MOLECULE
WGD
   31    32     1     0     0
SMALL
bcc


@<TRIPOS>ATOM
      1 N1          28.6060     4.6360   -41.3930 nc         1 WGD      -0.621000
      2 N3          32.5400     4.1450   -41.0920 n8         1 WGD      -0.874800
      3 C4          29.8880     6.6910   -41.9080 c3         1 WGD       0.168500
      4 C5          30.6390     7.2400   -39.6510 c5         1 WGD       0.151800
      5 C6          31.9150     7.0150   -38.8760 c5         1 WGD       0.170600
      6 C7          32.9800     7.0410   -39.9580 c5         1 WGD      -0.120400
      7 C8          32.2650     6.6420   -41.2640 c5         1 WGD       0.154500
      8 C10         27.4030     6.5950   -41.3880 cd         1 WGD      -0.201400
      9 C1          27.1080     2.7570   -40.8360 c3         1 WGD      -0.131400
     10 C2          27.4330     4.1860   -41.0900 cd         1 WGD       0.448700
     11 C3          28.6070     5.9960   -41.5650 cc         1 WGD       0.352600
     12 N2          30.8670     6.5030   -40.8710 n3         1 WGD      -0.752600
     13 C9          32.7710     5.3370   -41.8860 c3         1 WGD       0.156800
     14 S1          26.2170     5.4190   -40.9920 ss         1 WGD      -0.209300
     15 H1          33.0950     4.1820   -40.2460 hn         1 WGD       0.349800
     16 H2          31.5740     4.1740   -40.7830 hn         1 WGD       0.349800
     17 H4          30.2760     6.2640   -42.8370 h1         1 WGD       0.044700
     18 H5          29.6860     7.7550   -42.1120 h1         1 WGD       0.044700
     19 H6          30.5090     8.3230   -39.8170 h1         1 WGD       0.047700
     20 H7          29.7520     6.8860   -39.1190 h1         1 WGD       0.047700
     21 H8          32.0750     7.7530   -38.0890 h1         1 WGD       0.061700
     22 H9          33.8240     6.3940   -39.7080 hc         1 WGD       0.061200
     23 H10         33.3750     8.0540   -40.0410 hc         1 WGD       0.061200
     24 H11         32.3980     7.4460   -42.0050 h1         1 WGD       0.031700
     25 H12         27.1640     7.6440   -41.4630 h4         1 WGD       0.176000
     26 H13         26.2920     2.4130   -41.4720 hc         1 WGD       0.059700
     27 H14         27.9830     2.1430   -41.0350 hc         1 WGD       0.059700
     28 H15         26.8050     2.5990   -39.8000 hc         1 WGD       0.059700
     29 H17         32.2910     5.2000   -42.8600 h1         1 WGD       0.048200
     30 H18         33.8400     5.4350   -42.0940 h1         1 WGD       0.048200
     31 F1          31.8780     5.7580   -38.2600 f          1 WGD      -0.243300
@<TRIPOS>BOND
     1     1    10 2   
     2     1    11 1   
     3     2    13 1   
     4     2    15 1   
     5     2    16 1   
     6     3    11 1   
     7     3    12 1   
     8     3    17 1   
     9     3    18 1   
    10     4     5 1   
    11     4    12 1   
    12     4    19 1   
    13     4    20 1   
    14     5     6 1   
    15     5    21 1   
    16     5    31 1   
    17     6     7 1   
    18     6    22 1   
    19     6    23 1   
    20     7    12 1   
    21     7    13 1   
    22     7    24 1   
    23     8    11 2   
    24     8    14 1   
    25     8    25 1   
    26     9    10 1   
    27     9    26 1   
    28     9    27 1   
    29     9    28 1   
    30    10    14 1   
    31    13    29 1   
    32    13    30 1   
@<TRIPOS>SUBSTRUCTURE
     1 WGD         1 TEMP              0 ****  ****    0 ROOT
