@<TRIPOS>MOLECULE
WGE
   65    68     1     0     0
SMALL
No Charge or Current Charge


@<TRIPOS>ATOM
      1 N1          17.9570   -14.3760   -17.7410 n          1 WGE      -0.397800
      2 N3          12.2450   -16.2570   -14.8160 ns         1 WGE      -0.512900
      3 C4          17.4120   -13.1350   -17.1120 c5         1 WGE       0.047700
      4 C5          18.3020   -12.0170   -17.7460 c5         1 WGE      -0.073400
      5 C6          15.9210   -12.8370   -17.4720 c          1 WGE       0.594100
      6 C7          12.6880   -16.4260   -16.1990 c5         1 WGE       0.098000
      7 C8          12.8160   -14.9430   -16.6370 c5         1 WGE      -0.086400
      8 C10         13.3510   -14.2860   -15.3320 c5         1 WGE      -0.158700
      9 C13         13.6620   -10.3820   -16.1860 c3         1 WGE       0.150600
     10 C15         16.0080   -17.8700   -19.0950 ca         1 WGE      -0.112300
     11 C17         13.6170   -18.3680   -19.1500 ca         1 WGE      -0.110500
     12 C20         15.9040   -17.2900   -20.3760 ca         1 WGE      -0.098000
     13 C21         20.5710   -12.0190   -18.9620 c5         1 WGE      -0.069900
     14 C22         21.8910   -12.8230   -18.7750 c5         1 WGE      -0.079900
     15 C24         20.4890   -12.8860   -16.7000 c5         1 WGE      -0.069900
     16 C1          17.3330   -15.6240   -17.5910 c          1 WGE       0.645100
     17 C11         13.1600   -12.7440   -15.2310 c3         1 WGE      -0.069400
     18 C12         13.8620   -11.9140   -16.3400 c3         1 WGE       0.104700
     19 C16         14.8560   -18.4110   -18.4880 ca         1 WGE      -0.098000
     20 C18         13.5200   -17.7840   -20.4240 ca         1 WGE      -0.113000
     21 C19         14.6640   -17.2460   -21.0370 ca         1 WGE      -0.110500
     22 C2          19.6320   -12.7720   -17.9920 c5         1 WGE      -0.076000
     23 C23         21.8970   -13.2600   -17.2660 c5         1 WGE      -0.079900
     24 C3          19.1970   -14.1710   -18.5230 c5         1 WGE       0.128000
     25 C9          12.6220   -15.0760   -14.2390 c          1 WGE       0.562000
     26 N2          15.2940   -12.2420   -16.3950 ns         1 WGE      -0.497900
     27 O1          17.9360   -16.5910   -18.3500 os         1 WGE      -0.451100
     28 O2          16.3760   -15.8090   -16.8540 o          1 WGE      -0.549000
     29 O3          15.3530   -13.0740   -18.5320 o          1 WGE      -0.603100
     30 O5          12.2170   -14.7060   -13.1480 o          1 WGE      -0.574000
     31 H1          11.6700   -16.9030   -14.2880 hn         1 WGE       0.321500
     32 H2          17.5340   -13.1810   -16.0220 h1         1 WGE       0.067700
     33 H3          18.4050   -11.1390   -17.0980 hc         1 WGE       0.065200
     34 H4          17.8800   -11.6670   -18.6960 hc         1 WGE       0.065200
     35 H5          11.9670   -16.9780   -16.8160 h1         1 WGE       0.048200
     36 H6          13.6560   -16.9430   -16.2460 h1         1 WGE       0.048200
     37 H7          13.4860   -14.8190   -17.4950 hc         1 WGE       0.062200
     38 H8          11.8380   -14.5350   -16.9180 hc         1 WGE       0.062200
     39 H9          14.4140   -14.5360   -15.2370 hc         1 WGE       0.100700
     40 H10         14.0700   -10.0600   -15.2180 h1         1 WGE       0.025700
     41 H11         14.2330    -9.8710   -16.9720 h1         1 WGE       0.025700
     42 H12         12.7320   -18.7860   -18.6750 ha         1 WGE       0.115000
     43 H13         16.7850   -16.8690   -20.8570 ha         1 WGE       0.119500
     44 H14         20.7010   -10.9720   -18.6620 hc         1 WGE       0.048700
     45 H15         20.2170   -12.0230   -19.9990 hc         1 WGE       0.048700
     46 H16         21.9100   -13.7010   -19.4320 hc         1 WGE       0.044450
     47 H17         22.7710   -12.2230   -19.0330 hc         1 WGE       0.044450
     48 H18         20.5330   -11.9290   -16.1670 hc         1 WGE       0.048700
     49 H19         20.1130   -13.6320   -15.9900 hc         1 WGE       0.048700
     50 H20         13.5270   -12.3990   -14.2560 hc         1 WGE       0.064700
     51 H21         12.0870   -12.5150   -15.2470 hc         1 WGE       0.064700
     52 H22         13.4040   -12.1950   -17.2980 h1         1 WGE       0.094700
     53 H23         17.2270   -18.2930   -17.3470 h1         1 WGE       0.071200
     54 H24         18.0170   -18.6030   -18.8990 h1         1 WGE       0.071200
     55 H25         14.9200   -18.8620   -17.4990 ha         1 WGE       0.119500
     56 H26         12.5610   -17.7490   -20.9360 ha         1 WGE       0.113000
     57 H27         14.5910   -16.7950   -22.0240 ha         1 WGE       0.115000
     58 H28         22.0880   -14.3360   -17.1760 hc         1 WGE       0.044450
     59 H29         22.6920   -12.7560   -16.7030 hc         1 WGE       0.044450
     60 H30         18.9720   -14.1500   -19.5970 h1         1 WGE       0.062200
     61 H31         19.9460   -14.9520   -18.3370 h1         1 WGE       0.062200
     62 H32         15.8560   -12.0790   -15.5680 hn         1 WGE       0.313500
     63 H33         12.2190    -9.0500   -16.1830 ho         1 WGE       0.446000
     64 O4          12.2740   -10.0270   -16.2830 oh         1 WGE      -0.662000
     65 C14         17.3530   -17.9080   -18.3680 c3         1 WGE       0.225900
@<TRIPOS>BOND
     1     1     3 1   
     2     1    16 1   
     3     1    24 1   
     4     2     6 1   
     5     2    25 1   
     6     2    31 1   
     7     3     4 1   
     8     3     5 1   
     9     3    32 1   
    10     4    22 1   
    11     4    33 1   
    12     4    34 1   
    13     5    26 1   
    14     5    29 2   
    15     6     7 1   
    16     6    35 1   
    17     6    36 1   
    18     7     8 1   
    19     7    37 1   
    20     7    38 1   
    21     8    17 1   
    22     8    25 1   
    23     8    39 1   
    24     9    18 1   
    25     9    40 1   
    26     9    41 1   
    27     9    64 1   
    28    10    12 ar  
    29    10    19 ar  
    30    10    65 1   
    31    11    19 ar  
    32    11    20 ar  
    33    11    42 1   
    34    12    21 ar  
    35    12    43 1   
    36    13    14 1   
    37    13    22 1   
    38    13    44 1   
    39    13    45 1   
    40    14    23 1   
    41    14    46 1   
    42    14    47 1   
    43    15    22 1   
    44    15    23 1   
    45    15    48 1   
    46    15    49 1   
    47    16    27 1   
    48    16    28 2   
    49    17    18 1   
    50    17    50 1   
    51    17    51 1   
    52    18    26 1   
    53    18    52 1   
    54    19    55 1   
    55    20    21 ar  
    56    20    56 1   
    57    21    57 1   
    58    22    24 1   
    59    23    58 1   
    60    23    59 1   
    61    24    60 1   
    62    24    61 1   
    63    25    30 2   
    64    26    62 1   
    65    27    65 1   
    66    53    65 1   
    67    54    65 1   
    68    63    64 1   
@<TRIPOS>SUBSTRUCTURE
     1 WGE         1 TEMP              0 ****  ****    0 ROOT
