@<TRIPOS>MOLECULE
WGE
   65    68     1     0     0
SMALL
abcg2


@<TRIPOS>ATOM
      1 N1          17.9640   -14.2320   -17.5540 n          1 WGE      -0.397800
      2 N3          12.1330   -16.2910   -15.5620 ns         1 WGE      -0.512900
      3 C4          17.5350   -12.9710   -16.9560 c5         1 WGE       0.047700
      4 C5          18.4740   -11.9380   -17.6060 c5         1 WGE      -0.073400
      5 C6          16.0690   -12.6820   -17.2850 c          1 WGE       0.594100
      6 C7          12.4300   -16.2280   -16.9910 c5         1 WGE       0.098000
      7 C8          12.7680   -14.7440   -17.1870 c5         1 WGE      -0.086400
      8 C10         13.3160   -14.3080   -15.8210 c5         1 WGE      -0.158700
      9 C13         13.6940   -10.4270   -15.9900 c3         1 WGE       0.150600
     10 C15         15.8810   -17.7940   -18.5300 ca         1 WGE      -0.112300
     11 C17         13.9120   -19.0900   -19.0750 ca         1 WGE      -0.110500
     12 C20         15.4650   -16.8130   -19.4250 ca         1 WGE      -0.098000
     13 C21         20.5770   -12.0890   -19.1110 c5         1 WGE      -0.069900
     14 C22         21.8950   -12.8810   -19.0740 c5         1 WGE      -0.079900
     15 C24         20.7180   -12.9920   -16.9020 c5         1 WGE      -0.069900
     16 C1          17.3590   -15.3820   -17.2220 c          1 WGE       0.645100
     17 C11         13.1240   -12.8440   -15.4520 c3         1 WGE      -0.069400
     18 C12         13.9210   -11.8920   -16.3470 c3         1 WGE       0.104700
     19 C16         15.0910   -18.9320   -18.3580 ca         1 WGE      -0.098000
     20 C18         13.5010   -18.1050   -19.9690 ca         1 WGE      -0.113000
     21 C19         14.2790   -16.9660   -20.1380 ca         1 WGE      -0.110500
     22 C2          19.7060   -12.7430   -18.0360 c5         1 WGE      -0.076000
     23 C23         22.0310   -13.3890   -17.6120 c5         1 WGE      -0.079900
     24 C3          19.0720   -14.0650   -18.4950 c5         1 WGE       0.128000
     25 C9          12.6440   -15.2700   -14.8460 c          1 WGE       0.562000
     26 N2          15.3470   -12.1810   -16.2680 ns         1 WGE      -0.497900
     27 O1          17.8370   -16.4320   -17.9330 os         1 WGE      -0.451100
     28 O2          16.4770   -15.4800   -16.3790 o          1 WGE      -0.549000
     29 O3          15.6270   -12.8680   -18.4170 o          1 WGE      -0.603100
     30 O5          12.5980   -15.1560   -13.6220 o          1 WGE      -0.574000
     31 H1          11.7730   -17.1190   -15.1120 hn         1 WGE       0.321500
     32 H2          17.6750   -13.0060   -15.8740 h1         1 WGE       0.067700
     33 H3          18.7190   -11.1290   -16.9200 hc         1 WGE       0.065200
     34 H4          17.9910   -11.5110   -18.4870 hc         1 WGE       0.065200
     35 H5          11.5740   -16.5520   -17.5810 h1         1 WGE       0.048200
     36 H6          13.2790   -16.8690   -17.2370 h1         1 WGE       0.048200
     37 H7          13.4750   -14.5900   -17.9990 hc         1 WGE       0.062200
     38 H8          11.8570   -14.1840   -17.4130 hc         1 WGE       0.062200
     39 H9          14.3820   -14.5540   -15.7730 hc         1 WGE       0.100700
     40 H10         13.9820   -10.2530   -14.9460 h1         1 WGE       0.025700
     41 H11         14.3270    -9.8040   -16.6300 h1         1 WGE       0.025700
     42 H12         13.3090   -19.9780   -18.9300 ha         1 WGE       0.115000
     43 H13         16.0610   -15.9210   -19.5670 ha         1 WGE       0.119500
     44 H14         20.7530   -11.0460   -18.8310 hc         1 WGE       0.048700
     45 H15         20.0990   -12.0930   -20.0920 hc         1 WGE       0.048700
     46 H16         21.8410   -13.7260   -19.7630 hc         1 WGE       0.044450
     47 H17         22.7450   -12.2720   -19.3820 hc         1 WGE       0.044450
     48 H18         20.8530   -12.0630   -16.3430 hc         1 WGE       0.048700
     49 H19         20.3750   -13.7500   -16.1950 hc         1 WGE       0.048700
     50 H20         13.4300   -12.6920   -14.4130 hc         1 WGE       0.064700
     51 H21         12.0680   -12.5790   -15.5210 hc         1 WGE       0.064700
     52 H22         13.6370   -12.0390   -17.3880 h1         1 WGE       0.094700
     53 H23         16.9790   -17.8470   -16.6850 h1         1 WGE       0.071200
     54 H24         17.8830   -18.4320   -18.0880 h1         1 WGE       0.071200
     55 H25         15.4020   -19.6980   -17.6570 ha         1 WGE       0.119500
     56 H26         12.5780   -18.2220   -20.5220 ha         1 WGE       0.113000
     57 H27         13.9640   -16.1900   -20.8240 ha         1 WGE       0.115000
     58 H28         22.1730   -14.4700   -17.5950 hc         1 WGE       0.044450
     59 H29         22.8940   -12.9500   -17.1100 hc         1 WGE       0.044450
     60 H30         18.6980   -13.9870   -19.5210 h1         1 WGE       0.062200
     61 H31         19.7520   -14.9120   -18.4380 h1         1 WGE       0.062200
     62 H32         15.7780   -12.1430   -15.3560 hn         1 WGE       0.313500
     63 H33         12.1700    -9.1990   -15.9560 ho         1 WGE       0.446000
     64 O4          12.3150   -10.1230   -16.1920 oh         1 WGE      -0.662000
     65 C14         17.1670   -17.6850   -17.7460 c3         1 WGE       0.225900
@<TRIPOS>BOND
     1     1     3 1   
     2     1    16 1   
     3     1    24 1   
     4     2     6 1   
     5     2    25 1   
     6     2    31 1   
     7     3     4 1   
     8     3     5 1   
     9     3    32 1   
    10     4    22 1   
    11     4    33 1   
    12     4    34 1   
    13     5    26 1   
    14     5    29 2   
    15     6     7 1   
    16     6    35 1   
    17     6    36 1   
    18     7     8 1   
    19     7    37 1   
    20     7    38 1   
    21     8    17 1   
    22     8    25 1   
    23     8    39 1   
    24     9    18 1   
    25     9    40 1   
    26     9    41 1   
    27     9    64 1   
    28    10    12 ar  
    29    10    19 ar  
    30    10    65 1   
    31    11    19 ar  
    32    11    20 ar  
    33    11    42 1   
    34    12    21 ar  
    35    12    43 1   
    36    13    14 1   
    37    13    22 1   
    38    13    44 1   
    39    13    45 1   
    40    14    23 1   
    41    14    46 1   
    42    14    47 1   
    43    15    22 1   
    44    15    23 1   
    45    15    48 1   
    46    15    49 1   
    47    16    27 1   
    48    16    28 2   
    49    17    18 1   
    50    17    50 1   
    51    17    51 1   
    52    18    26 1   
    53    18    52 1   
    54    19    55 1   
    55    20    21 ar  
    56    20    56 1   
    57    21    57 1   
    58    22    24 1   
    59    23    58 1   
    60    23    59 1   
    61    24    60 1   
    62    24    61 1   
    63    25    30 2   
    64    26    62 1   
    65    27    65 1   
    66    53    65 1   
    67    54    65 1   
    68    63    64 1   
@<TRIPOS>SUBSTRUCTURE
     1 WGE         1 TEMP              0 ****  ****    0 ROOT
