@<TRIPOS>MOLECULE
WGF
   67    71     1     0     0
SMALL
abcg2


@<TRIPOS>ATOM
      1 C4          28.7010    33.0380   -15.1000 c5         1 WGF       0.112000
      2 C14         36.9510    26.8300    -9.8150 cc         1 WGF       0.420700
      3 C5          28.1490    31.7100   -15.6020 c5         1 WGF       0.085300
      4 C6          30.8260    29.6090   -14.7770 cc         1 WGF       0.437000
      5 C11         36.2840    29.7670   -11.7170 ca         1 WGF      -0.183000
      6 C7          31.9790    29.3910   -13.9850 cg         1 WGF      -0.165000
      7 C8          32.9670    29.1730   -13.3270 ch         1 WGF      -0.091000
      8 C9          34.1270    28.9350   -12.5530 ca         1 WGF      -0.088000
      9 C10         35.1430    29.9080   -12.4680 ca         1 WGF       0.240000
     10 C12         36.3940    28.5600   -11.0360 ca         1 WGF      -0.021200
     11 C13         35.4250    27.5430   -11.0850 ca         1 WGF      -0.001600
     12 N1          28.4600    33.0040   -13.6690 n          1 WGF      -0.396800
     13 N2          29.1380    30.6360   -15.5460 na         1 WGF       0.075800
     14 C3          29.2340    33.5950   -12.7380 c          1 WGF       0.620100
     15 N3          30.1410    30.7230   -14.6530 nd         1 WGF      -0.507800
     16 C1          30.9070    35.4110   -12.1520 c3         1 WGF      -0.076100
     17 C15         38.5410    28.7670    -9.7810 cx         1 WGF       0.002300
     18 C16         39.5530    29.1650   -10.8090 cx         1 WGF      -0.125400
     19 C17         39.8520    28.0590    -9.8480 cx         1 WGF      -0.125400
     20 C18         34.2940    27.7520   -11.8560 ca         1 WGF       0.287000
     21 C19         30.2730    28.7600   -15.7670 cc         1 WGF      -0.363600
     22 C2          30.2950    34.5570   -13.2470 c3         1 WGF      -0.152400
     23 C20         30.6920    27.4640   -16.2860 c          1 WGF       0.669700
     24 C21         29.1440    29.4590   -16.2180 cd         1 WGF       0.355000
     25 C22         27.0870    29.6510   -17.6820 c3         1 WGF       0.222100
     26 C23         26.9760    31.4670   -14.6580 c5         1 WGF      -0.114400
     27 C24         27.4100    32.0540   -13.3090 c5         1 WGF       0.124700
     28 C25         26.2440    32.6920   -12.5680 c3         1 WGF       0.142600
     29 C26         24.6520    34.3970   -12.7150 c3         1 WGF       0.144900
     30 F1          34.9590    31.0200   -13.1720 f          1 WGF      -0.157000
     31 F2          33.3570    26.8110   -11.9410 f          1 WGF      -0.144000
     32 N4          35.8060    26.4740   -10.3140 nd         1 WGF      -0.535100
     33 N5          37.3670    28.0750   -10.2100 na         1 WGF      -0.155600
     34 N6          31.7160    26.8450   -15.6830 nt         1 WGF      -0.592000
     35 N7          28.2520    29.0120   -17.1280 nu         1 WGF      -0.979200
     36 O1          29.0770    33.3800   -11.5420 o          1 WGF      -0.612100
     37 O2          30.1260    26.9590   -17.2600 o          1 WGF      -0.676100
     38 O3          25.7760    33.7940   -13.3000 os         1 WGF      -0.455000
     39 H7          28.1380    33.8460   -15.5770 h1         1 WGF       0.063200
     40 H6          29.7530    33.1710   -15.3420 h1         1 WGF       0.063200
     41 H8          27.8340    31.8160   -16.6370 h1         1 WGF       0.072700
     42 H9          37.0360    30.5420   -11.6720 ha         1 WGF       0.146000
     43 H3          31.6540    36.0880   -12.5780 hc         1 WGF       0.040033
     44 H1          30.1490    36.0210   -11.6520 hc         1 WGF       0.040033
     45 H2          31.3990    34.8040   -11.3950 hc         1 WGF       0.040033
     46 H11         38.3710    29.4430    -8.9510 h1         1 WGF       0.102700
     47 H13         39.3560    28.8920   -11.8360 hc         1 WGF       0.086950
     48 H12         40.0380    30.1240   -10.6800 hc         1 WGF       0.086950
     49 H15         39.8670    27.0500   -10.2340 hc         1 WGF       0.086950
     50 H14         40.5450    28.2420    -9.0380 hc         1 WGF       0.086950
     51 H4          29.8650    35.1960   -14.0230 hc         1 WGF       0.056700
     52 H5          31.0760    33.9760   -13.7450 hc         1 WGF       0.056700
     53 H20         26.5370    28.9010   -18.2320 h1         1 WGF       0.037033
     54 H21         26.4180    30.0300   -16.9220 h1         1 WGF       0.037033
     55 H19         27.3240    30.4480   -18.3790 h1         1 WGF       0.037033
     56 H22         26.1080    32.0010   -15.0440 hc         1 WGF       0.068700
     57 H23         26.7060    30.4140   -14.5750 hc         1 WGF       0.068700
     58 H24         27.8230    31.2720   -12.6650 h1         1 WGF       0.080700
     59 H26         25.4600    31.9270   -12.4520 h1         1 WGF       0.039700
     60 H25         26.5480    32.9920   -11.5580 h1         1 WGF       0.039700
     61 H29         24.3680    35.2520   -13.3260 h1         1 WGF       0.028033
     62 H28         23.7950    33.7120   -12.6560 h1         1 WGF       0.028033
     63 H27         24.8610    34.7600   -11.6940 h1         1 WGF       0.028033
     64 H17         32.0190    25.9610   -16.0350 hn         1 WGF       0.319000
     65 H16         32.1540    27.1920   -14.8450 hn         1 WGF       0.319000
     66 H18         28.5780    28.1650   -17.5980 hn         1 WGF       0.547000
     67 H10         37.5530    26.2260    -9.1560 h5         1 WGF       0.068800
@<TRIPOS>BOND
     1     1     3 1   
     2     1    12 1   
     3     1    39 1   
     4     1    40 1   
     5     2    32 2   
     6     2    33 1   
     7     2    67 1   
     8     3    13 1   
     9     3    26 1   
    10     3    41 1   
    11     4     6 1   
    12     4    15 2   
    13     4    21 1   
    14     5     9 ar  
    15     5    10 ar  
    16     5    42 1   
    17     6     7 3   
    18     7     8 1   
    19     8     9 ar  
    20     8    20 ar  
    21     9    30 1   
    22    10    11 ar  
    23    10    33 1   
    24    11    20 ar  
    25    11    32 1   
    26    12    14 1   
    27    12    27 1   
    28    13    15 1   
    29    13    24 1   
    30    14    22 1   
    31    14    36 2   
    32    16    22 1   
    33    16    43 1   
    34    16    44 1   
    35    16    45 1   
    36    17    18 1   
    37    17    19 1   
    38    17    33 1   
    39    17    46 1   
    40    18    19 1   
    41    18    47 1   
    42    18    48 1   
    43    19    49 1   
    44    19    50 1   
    45    20    31 1   
    46    21    23 1   
    47    21    24 2   
    48    22    51 1   
    49    22    52 1   
    50    23    34 1   
    51    23    37 2   
    52    24    35 1   
    53    25    35 1   
    54    25    53 1   
    55    25    54 1   
    56    25    55 1   
    57    26    27 1   
    58    26    56 1   
    59    26    57 1   
    60    27    28 1   
    61    27    58 1   
    62    28    38 1   
    63    28    59 1   
    64    28    60 1   
    65    29    38 1   
    66    29    61 1   
    67    29    62 1   
    68    29    63 1   
    69    34    64 1   
    70    34    65 1   
    71    35    66 1   
@<TRIPOS>SUBSTRUCTURE
     1 WGF         1 TEMP              0 ****  ****    0 ROOT
