@<TRIPOS>MOLECULE
WGF
   67    71     1     0     0
SMALL
No Charge or Current Charge


@<TRIPOS>ATOM
      1 C4          28.8260    33.1630   -15.3120 c5         1 WGF       0.112000
      2 C14         37.6530    26.5150   -10.8250 cc         1 WGF       0.420700
      3 C5          28.2620    31.7890   -15.7870 c5         1 WGF       0.085300
      4 C6          30.7300    29.4820   -14.7740 cc         1 WGF       0.437000
      5 C11         35.9080    29.6450   -11.1900 ca         1 WGF      -0.183000
      6 C7          31.9220    29.1820   -14.0570 cg         1 WGF      -0.165000
      7 C8          32.9410    28.9860   -13.4130 ch         1 WGF      -0.091000
      8 C9          34.1310    28.7720   -12.6510 ca         1 WGF      -0.088000
      9 C10         34.7360    29.8450   -11.9440 ca         1 WGF       0.240000
     10 C12         36.4520    28.3560   -11.1630 ca         1 WGF      -0.021200
     11 C13         35.8960    27.3000   -11.8300 ca         1 WGF      -0.001600
     12 N1          28.4830    33.1690   -13.8660 n          1 WGF      -0.396800
     13 N2          29.1260    30.6070   -15.5660 na         1 WGF       0.075800
     14 C3          29.3860    33.6200   -12.8810 c          1 WGF       0.620100
     15 N3          30.2810    30.7180   -14.7970 nd         1 WGF      -0.507800
     16 C1          31.1130    35.4340   -12.1350 c3         1 WGF      -0.076100
     17 C15         38.4930    28.6130    -9.6770 cx         1 WGF       0.002300
     18 C16         39.2850    29.8270   -10.1020 cx         1 WGF      -0.125400
     19 C17         40.0000    28.5410    -9.7690 cx         1 WGF      -0.125400
     20 C18         34.7220    27.4850   -12.5900 ca         1 WGF       0.287000
     21 C19         29.9430    28.5540   -15.4850 cc         1 WGF      -0.363600
     22 C2          30.4610    34.6470   -13.2940 c3         1 WGF      -0.152400
     23 C20         30.1240    27.1070   -15.6770 c          1 WGF       0.669700
     24 C21         28.9250    29.2800   -16.0030 cd         1 WGF       0.355000
     25 C22         27.1100    29.5050   -17.7830 c3         1 WGF       0.222100
     26 C23         26.9380    31.7750   -14.9750 c5         1 WGF      -0.114400
     27 C24         27.4080    32.1940   -13.5490 c5         1 WGF       0.124700
     28 C25         26.2490    32.7690   -12.6820 c3         1 WGF       0.142600
     29 C26         24.6620    34.5940   -12.5720 c3         1 WGF       0.144900
     30 F1          34.1930    31.0850   -11.9830 f          1 WGF      -0.157000
     31 F2          34.1700    26.4370   -13.2510 f          1 WGF      -0.144000
     32 N4          36.6380    26.1280   -11.6300 nd         1 WGF      -0.535100
     33 N5          37.5570    27.8770   -10.5320 na         1 WGF      -0.155600
     34 N6          31.1850    26.5170   -15.1040 nt         1 WGF      -0.592000
     35 N7          27.9030    28.7830   -16.7740 nu         1 WGF      -0.979200
     36 O1          29.2890    33.2360   -11.7210 o          1 WGF      -0.612100
     37 O2          29.3580    26.4180   -16.3320 o          1 WGF      -0.676100
     38 O3          25.7330    33.9690   -13.2960 os         1 WGF      -0.455000
     39 H7          28.3220    33.9950   -15.8220 h1         1 WGF       0.063200
     40 H6          29.9020    33.2490   -15.5120 h1         1 WGF       0.063200
     41 H8          28.0520    31.8510   -16.8610 h1         1 WGF       0.072700
     42 H9          36.3680    30.4670   -10.6490 ha         1 WGF       0.146000
     43 H3          31.8530    36.1440   -12.5230 hc         1 WGF       0.040033
     44 H1          30.3560    35.9980   -11.5770 hc         1 WGF       0.040033
     45 H2          31.6230    34.7550   -11.4400 hc         1 WGF       0.040033
     46 H11         38.0540    28.6290    -8.6780 h1         1 WGF       0.102700
     47 H13         39.2360    30.1240   -11.1470 hc         1 WGF       0.086950
     48 H12         39.3620    30.6510    -9.3960 hc         1 WGF       0.086950
     49 H15         40.4360    27.9800   -10.5930 hc         1 WGF       0.086950
     50 H14         40.5610    28.4960    -8.8390 hc         1 WGF       0.086950
     51 H4          30.0360    35.3190   -14.0480 hc         1 WGF       0.056700
     52 H5          31.2240    34.1100   -13.8680 hc         1 WGF       0.056700
     53 H20         26.6180    28.7920   -18.4580 h1         1 WGF       0.037033
     54 H21         26.3320    30.1140   -17.3050 h1         1 WGF       0.037033
     55 H19         27.7540    30.1590   -18.3860 h1         1 WGF       0.037033
     56 H22         26.2230    32.4910   -15.3960 hc         1 WGF       0.068700
     57 H23         26.4460    30.7960   -14.9760 hc         1 WGF       0.068700
     58 H24         27.8320    31.3290   -13.0200 h1         1 WGF       0.080700
     59 H26         25.4620    32.0090   -12.5910 h1         1 WGF       0.039700
     60 H25         26.6270    32.9850   -11.6750 h1         1 WGF       0.039700
     61 H29         24.3220    35.4960   -13.0980 h1         1 WGF       0.028033
     62 H28         23.8060    33.9130   -12.4750 h1         1 WGF       0.028033
     63 H27         24.9900    34.8880   -11.5660 h1         1 WGF       0.028033
     64 H17         31.3190    25.5260   -15.2280 hn         1 WGF       0.319000
     65 H16         31.8340    27.0610   -14.5580 hn         1 WGF       0.319000
     66 H18         28.0170    27.7680   -16.9180 hn         1 WGF       0.547000
     67 H10         38.4480    25.8890   -10.4400 h5         1 WGF       0.068800
@<TRIPOS>BOND
     1     1     3 1   
     2     1    12 1   
     3     1    39 1   
     4     1    40 1   
     5     2    32 2   
     6     2    33 1   
     7     2    67 1   
     8     3    13 1   
     9     3    26 1   
    10     3    41 1   
    11     4     6 1   
    12     4    15 2   
    13     4    21 1   
    14     5     9 ar  
    15     5    10 ar  
    16     5    42 1   
    17     6     7 3   
    18     7     8 1   
    19     8     9 ar  
    20     8    20 ar  
    21     9    30 1   
    22    10    11 ar  
    23    10    33 1   
    24    11    20 ar  
    25    11    32 1   
    26    12    14 1   
    27    12    27 1   
    28    13    15 1   
    29    13    24 1   
    30    14    22 1   
    31    14    36 2   
    32    16    22 1   
    33    16    43 1   
    34    16    44 1   
    35    16    45 1   
    36    17    18 1   
    37    17    19 1   
    38    17    33 1   
    39    17    46 1   
    40    18    19 1   
    41    18    47 1   
    42    18    48 1   
    43    19    49 1   
    44    19    50 1   
    45    20    31 1   
    46    21    23 1   
    47    21    24 2   
    48    22    51 1   
    49    22    52 1   
    50    23    34 1   
    51    23    37 2   
    52    24    35 1   
    53    25    35 1   
    54    25    53 1   
    55    25    54 1   
    56    25    55 1   
    57    26    27 1   
    58    26    56 1   
    59    26    57 1   
    60    27    28 1   
    61    27    58 1   
    62    28    38 1   
    63    28    59 1   
    64    28    60 1   
    65    29    38 1   
    66    29    61 1   
    67    29    62 1   
    68    29    63 1   
    69    34    64 1   
    70    34    65 1   
    71    35    66 1   
@<TRIPOS>SUBSTRUCTURE
     1 WGF         1 TEMP              0 ****  ****    0 ROOT
