@<TRIPOS>MOLECULE
WGG
   38    40     1     0     0
SMALL
abcg2


@<TRIPOS>ATOM
      1 C18          5.2080     2.5020     0.1190 ca         1 WGG      -0.128000
      2 C17          4.2060     2.9830    -0.7290 ca         1 WGG      -0.075000
      3 C7          -4.2460    -0.8060     1.6740 ca         1 WGG      -0.075000
      4 C19          5.0330     1.3090     0.7860 ca         1 WGG      -0.041000
      5 C8          -3.2350    -1.4110     0.9490 ca         1 WGG      -0.126000
      6 C16          3.0380     2.2750    -0.9100 ca         1 WGG      -0.101000
      7 C6          -5.0300     0.2020     1.1200 ca         1 WGG      -0.189000
      8 C4          -3.7710    -0.0040    -0.9250 ca         1 WGG      -0.135000
      9 C20          3.8540     0.5800     0.6130 ca         1 WGG      -0.196600
     10 C3          -2.9960    -1.0060    -0.3650 ca         1 WGG      -0.087300
     11 C15          2.8470     1.0600    -0.2400 ca         1 WGG       0.181400
     12 C5          -4.7910     0.6070    -0.1910 ca         1 WGG       0.138100
     13 C21          3.6550    -0.6860     1.3130 c          1 WGG       0.578600
     14 C13          1.5260    -0.7360     0.1870 cc         1 WGG       0.449900
     15 C11          0.2650    -1.5500     0.0180 c          1 WGG       0.524800
     16 C10         -6.5340     2.2160    -0.1370 c3         1 WGG       0.148900
     17 C2          -1.8790    -1.6280    -1.1670 c3         1 WGG       0.148300
     18 N14          1.6730     0.3700    -0.4400 nd         1 WGG      -0.634100
     19 N23          2.4400    -1.2720     1.0300 ns         1 WGG      -0.406400
     20 N1          -0.5930    -1.0380    -0.8590 ns         1 WGG      -0.468900
     21 O22          4.4480    -1.2050     2.0730 o          1 WGG      -0.525000
     22 O12          0.1200    -2.5820     0.6550 o          1 WGG      -0.602100
     23 O9          -5.4850     1.5680    -0.8290 os         1 WGG      -0.343100
     24 H1           6.1210     3.0680     0.2510 ha         1 WGG       0.121000
     25 H2           4.3490     3.9210    -1.2490 ha         1 WGG       0.119000
     26 H3          -4.4400    -1.1180     2.6920 ha         1 WGG       0.115000
     27 H4           5.8040     0.9300     1.4440 ha         1 WGG       0.138000
     28 H5          -2.6360    -2.1960     1.3940 ha         1 WGG       0.130000
     29 H6           2.2590     2.6400    -1.5660 ha         1 WGG       0.132000
     30 H7          -5.8120     0.6480     1.7180 ha         1 WGG       0.118000
     31 H8          -3.5940     0.3160    -1.9460 ha         1 WGG       0.123000
     32 H9          -6.9540     2.9460    -0.8240 h1         1 WGG       0.041700
     33 H10         -7.3200     1.5160     0.1590 h1         1 WGG       0.041700
     34 H11         -6.1740     2.7390     0.7540 h1         1 WGG       0.041700
     35 H12         -1.8230    -2.6990    -0.9780 h1         1 WGG       0.067700
     36 H13         -2.0570    -1.4940    -2.2330 h1         1 WGG       0.067700
     37 H14          2.2160    -2.1570     1.4720 hn         1 WGG       0.358500
     38 H15         -0.3510    -0.1530    -1.2820 hn         1 WGG       0.350500
@<TRIPOS>BOND
     1     1     2 ar  
     2     1     4 ar  
     3     1    24 1   
     4     2     6 ar  
     5     2    25 1   
     6     3     5 ar  
     7     3     7 ar  
     8     3    26 1   
     9     4     9 ar  
    10     4    27 1   
    11     5    10 ar  
    12     5    28 1   
    13     6    11 ar  
    14     6    29 1   
    15     7    12 ar  
    16     7    30 1   
    17     8    10 ar  
    18     8    12 ar  
    19     8    31 1   
    20     9    11 ar  
    21     9    13 1   
    22    10    17 1   
    23    11    18 1   
    24    12    23 1   
    25    13    19 1   
    26    13    21 2   
    27    14    15 1   
    28    14    18 2   
    29    14    19 1   
    30    15    20 1   
    31    15    22 2   
    32    16    23 1   
    33    16    32 1   
    34    16    33 1   
    35    16    34 1   
    36    17    20 1   
    37    17    35 1   
    38    17    36 1   
    39    19    37 1   
    40    20    38 1   
@<TRIPOS>SUBSTRUCTURE
     1 WGG         1 TEMP              0 ****  ****    0 ROOT
