@<TRIPOS>MOLECULE
WGG
   38    40     1     0     0
SMALL
No Charge or Current Charge


@<TRIPOS>ATOM
      1 C18          5.3150     2.5540     0.1030 ca         1 WGG      -0.128000
      2 C17          4.3710     2.9950    -0.8360 ca         1 WGG      -0.075000
      3 C7          -4.3910    -0.9950     1.6400 ca         1 WGG      -0.075000
      4 C19          5.0740     1.3840     0.8410 ca         1 WGG      -0.041000
      5 C8          -3.3590    -1.5830     0.8900 ca         1 WGG      -0.126000
      6 C16          3.1870     2.2640    -1.0340 ca         1 WGG      -0.101000
      7 C6          -5.1100     0.0940     1.1190 ca         1 WGG      -0.189000
      8 C4          -3.7600     0.0060    -0.9050 ca         1 WGG      -0.135000
      9 C20          3.8830     0.6530     0.6370 ca         1 WGG      -0.196600
     10 C3          -3.0380    -1.0880    -0.3880 ca         1 WGG      -0.087300
     11 C15          2.9300     1.0890    -0.3040 ca         1 WGG       0.181400
     12 C5          -4.7940     0.5990    -0.1610 ca         1 WGG       0.138100
     13 C21          3.6070    -0.5850     1.4050 c          1 WGG       0.578600
     14 C13          1.5270    -0.6980     0.1630 cc         1 WGG       0.449900
     15 C11          0.2870    -1.5630     0.0320 c          1 WGG       0.524800
     16 C10         -6.5360     2.3450    -0.0460 c3         1 WGG       0.148900
     17 C2          -1.9160    -1.7220    -1.1980 c3         1 WGG       0.148300
     18 N14          1.7220     0.4180    -0.5630 nd         1 WGG      -0.634100
     19 N23          2.4290    -1.1670     1.0960 ns         1 WGG      -0.406400
     20 N1          -0.6260    -1.1000    -0.9010 ns         1 WGG      -0.468900
     21 O22          4.3610    -1.0550     2.2430 o          1 WGG      -0.525000
     22 O12          0.0770    -2.5880     0.6790 o          1 WGG      -0.602100
     23 O9          -5.4630     1.6670    -0.7250 os         1 WGG      -0.343100
     24 H1           6.2330     3.1170     0.2600 ha         1 WGG       0.121000
     25 H2           4.5540     3.9010    -1.4100 ha         1 WGG       0.119000
     26 H3          -4.6330    -1.3850     2.6270 ha         1 WGG       0.115000
     27 H4           5.8120     1.0480     1.5680 ha         1 WGG       0.138000
     28 H5          -2.8060    -2.4240     1.3040 ha         1 WGG       0.130000
     29 H6           2.4600     2.6120    -1.7640 ha         1 WGG       0.132000
     30 H7          -5.9030     0.5300     1.7190 ha         1 WGG       0.118000
     31 H8          -3.5200     0.4000    -1.8890 ha         1 WGG       0.123000
     32 H9          -6.9250     3.1590    -0.6700 h1         1 WGG       0.041700
     33 H10         -7.3620     1.6540     0.1650 h1         1 WGG       0.041700
     34 H11         -6.1870     2.7780     0.9000 h1         1 WGG       0.041700
     35 H12         -1.8670    -2.7990    -0.9900 h1         1 WGG       0.067700
     36 H13         -2.1240    -1.6050    -2.2700 h1         1 WGG       0.067700
     37 H14          2.2040    -2.0150     1.5980 hn         1 WGG       0.358500
     38 H15         -0.3720    -0.2420    -1.3820 hn         1 WGG       0.350500
@<TRIPOS>BOND
     1     1     2 ar  
     2     1     4 ar  
     3     1    24 1   
     4     2     6 ar  
     5     2    25 1   
     6     3     5 ar  
     7     3     7 ar  
     8     3    26 1   
     9     4     9 ar  
    10     4    27 1   
    11     5    10 ar  
    12     5    28 1   
    13     6    11 ar  
    14     6    29 1   
    15     7    12 ar  
    16     7    30 1   
    17     8    10 ar  
    18     8    12 ar  
    19     8    31 1   
    20     9    11 ar  
    21     9    13 1   
    22    10    17 1   
    23    11    18 1   
    24    12    23 1   
    25    13    19 1   
    26    13    21 2   
    27    14    15 1   
    28    14    18 2   
    29    14    19 1   
    30    15    20 1   
    31    15    22 2   
    32    16    23 1   
    33    16    32 1   
    34    16    33 1   
    35    16    34 1   
    36    17    20 1   
    37    17    35 1   
    38    17    36 1   
    39    19    37 1   
    40    20    38 1   
@<TRIPOS>SUBSTRUCTURE
     1 WGG         1 TEMP              0 ****  ****    0 ROOT
