@<TRIPOS>MOLECULE
WGI
   68    71     1     0     0
SMALL
abcg2


@<TRIPOS>ATOM
      1 N1          -9.2520   -15.0510   -18.5770 n          1 WGI      -0.397800
      2 N3         -15.0560   -16.4260   -15.9240 ns         1 WGI      -0.513900
      3 C4          -9.4670   -13.7620   -17.9310 c5         1 WGI       0.046700
      4 C5          -8.5310   -12.8220   -18.7100 c5         1 WGI      -0.078400
      5 C6         -10.9250   -13.3110   -18.0510 c          1 WGI       0.596100
      6 C7         -14.9370   -16.3450   -17.3770 c5         1 WGI       0.098000
      7 C8         -14.4360   -14.9090   -17.5810 c5         1 WGI      -0.086400
      8 C10        -13.6610   -14.6060   -16.2910 c5         1 WGI      -0.157700
      9 C13        -12.7790   -10.8030   -16.3990 c3         1 WGI       0.150600
     10 C15        -11.8450   -18.3220   -19.3220 ca         1 WGI      -0.112300
     11 C17        -14.0250   -19.3420   -19.5680 ca         1 WGI      -0.111000
     12 C20        -12.2420   -17.2990   -20.1780 ca         1 WGI      -0.097000
     13 C21         -6.3700   -14.0590   -18.1790 c6         1 WGI      -0.065400
     14 C22         -5.4900   -12.8550   -17.8350 c6         1 WGI      -0.072900
     15 C24         -5.8560   -11.9420   -20.1610 c6         1 WGI      -0.072900
     16 C1          -9.9540   -16.1310   -18.2010 c          1 WGI       0.645100
     17 C11        -13.6010   -13.1470   -15.8620 c3         1 WGI      -0.069400
     18 C12        -12.8030   -12.2670   -16.8270 c3         1 WGI       0.105700
     19 C16        -12.7490   -19.3410   -19.0180 ca         1 WGI      -0.097000
     20 C18        -14.4170   -18.3170   -20.4250 ca         1 WGI      -0.113000
     21 C19        -13.5240   -17.2950   -20.7230 ca         1 WGI      -0.111000
     22 C2          -7.4200   -13.7400   -19.2620 c5         1 WGI      -0.065000
     23 C23         -4.8230   -12.2780   -19.0840 c6         1 WGI      -0.076400
     24 C25         -6.7260   -13.1550   -20.4960 c6         1 WGI      -0.065400
     25 C3          -8.2220   -15.0000   -19.6160 c5         1 WGI       0.124000
     26 C9         -14.3280   -15.5080   -15.2580 c          1 WGI       0.562000
     27 N2         -11.4310   -12.7390   -16.9450 ns         1 WGI      -0.498900
     28 O1          -9.6780   -17.2090   -18.9750 os         1 WGI      -0.452100
     29 O2         -10.7530   -16.1490   -17.2740 o          1 WGI      -0.547000
     30 O3         -11.5420   -13.4330   -19.1060 o          1 WGI      -0.602100
     31 O5         -14.2080   -15.4340   -14.0360 o          1 WGI      -0.574000
     32 H1         -15.4690   -17.2140   -15.4480 hn         1 WGI       0.321500
     33 H2          -9.1830   -13.8180   -16.8780 h1         1 WGI       0.064700
     34 H3          -8.1640   -12.0180   -18.0780 hc         1 WGI       0.065700
     35 H4          -9.0770   -12.3790   -19.5450 hc         1 WGI       0.065700
     36 H5         -15.8960   -16.5360   -17.8570 h1         1 WGI       0.048200
     37 H6         -14.2160   -17.0780   -17.7460 h1         1 WGI       0.048200
     38 H7         -13.8280   -14.8100   -18.4760 hc         1 WGI       0.062700
     39 H8         -15.2870   -14.2290   -17.6660 hc         1 WGI       0.062700
     40 H9         -12.6400   -14.9920   -16.3930 hc         1 WGI       0.100700
     41 H10        -12.3500   -10.7210   -15.3930 h1         1 WGI       0.025200
     42 H11        -12.1430   -10.2420   -17.0910 h1         1 WGI       0.025200
     43 H12        -14.7160   -20.1380   -19.3210 ha         1 WGI       0.114500
     44 H13        -11.5570   -16.4970   -20.4170 ha         1 WGI       0.119000
     45 H14         -6.8610   -14.4380   -17.2790 hc         1 WGI       0.044950
     46 H15         -5.7330   -14.8680   -18.5530 hc         1 WGI       0.044950
     47 H16         -4.7340   -13.1530   -17.1050 hc         1 WGI       0.040450
     48 H17         -6.0950   -12.0790   -17.3560 hc         1 WGI       0.040450
     49 H18         -5.3570   -11.5860   -21.0660 hc         1 WGI       0.040450
     50 H19         -6.4920   -11.1220   -19.8120 hc         1 WGI       0.040450
     51 H20        -13.1490   -13.0830   -14.8690 hc         1 WGI       0.064200
     52 H21        -14.6130   -12.7420   -15.7830 hc         1 WGI       0.064200
     53 H22        -13.2360   -12.3260   -17.8250 h1         1 WGI       0.094700
     54 H23        -10.5170   -18.5690   -17.6530 h1         1 WGI       0.070700
     55 H24         -9.8870   -19.1910   -19.1850 h1         1 WGI       0.070700
     56 H25        -12.4520   -20.1360   -18.3440 ha         1 WGI       0.119000
     57 H26        -15.4140   -18.3100   -20.8460 ha         1 WGI       0.113000
     58 H27        -13.8230   -16.4860   -21.3780 ha         1 WGI       0.114500
     59 H28         -4.1160   -13.0140   -19.4850 hc         1 WGI       0.041200
     60 H29         -4.2420   -11.3880   -18.8270 hc         1 WGI       0.041200
     61 H30         -7.4800   -12.8920   -21.2430 hc         1 WGI       0.044950
     62 H31         -6.0950   -13.9340   -20.9420 hc         1 WGI       0.044950
     63 H32         -8.6810   -14.9060   -20.6050 h1         1 WGI       0.060700
     64 H33         -7.6130   -15.9020   -19.6000 h1         1 WGI       0.060700
     65 H34        -10.8740   -12.7620   -16.1030 hn         1 WGI       0.313500
     66 H35        -14.1030    -9.3950   -16.0910 ho         1 WGI       0.446000
     67 O6         -14.1140   -10.3010   -16.4200 oh         1 WGI      -0.662000
     68 C14        -10.4590   -18.3860   -18.7260 c3         1 WGI       0.225900
@<TRIPOS>BOND
     1     1     3 1   
     2     1    16 1   
     3     1    25 1   
     4     2     6 1   
     5     2    26 1   
     6     2    32 1   
     7     3     4 1   
     8     3     5 1   
     9     3    33 1   
    10     4    22 1   
    11     4    34 1   
    12     4    35 1   
    13     5    27 1   
    14     5    30 2   
    15     6     7 1   
    16     6    36 1   
    17     6    37 1   
    18     7     8 1   
    19     7    38 1   
    20     7    39 1   
    21     8    17 1   
    22     8    26 1   
    23     8    40 1   
    24     9    18 1   
    25     9    41 1   
    26     9    42 1   
    27     9    67 1   
    28    10    12 ar  
    29    10    19 ar  
    30    10    68 1   
    31    11    19 ar  
    32    11    20 ar  
    33    11    43 1   
    34    12    21 ar  
    35    12    44 1   
    36    13    14 1   
    37    13    22 1   
    38    13    45 1   
    39    13    46 1   
    40    14    23 1   
    41    14    47 1   
    42    14    48 1   
    43    15    23 1   
    44    15    24 1   
    45    15    49 1   
    46    15    50 1   
    47    16    28 1   
    48    16    29 2   
    49    17    18 1   
    50    17    51 1   
    51    17    52 1   
    52    18    27 1   
    53    18    53 1   
    54    19    56 1   
    55    20    21 ar  
    56    20    57 1   
    57    21    58 1   
    58    22    24 1   
    59    22    25 1   
    60    23    59 1   
    61    23    60 1   
    62    24    61 1   
    63    24    62 1   
    64    25    63 1   
    65    25    64 1   
    66    26    31 2   
    67    27    65 1   
    68    28    68 1   
    69    54    68 1   
    70    55    68 1   
    71    66    67 1   
@<TRIPOS>SUBSTRUCTURE
     1 WGI         1 TEMP              0 ****  ****    0 ROOT
