@<TRIPOS>MOLECULE
WGI
   68    71     1     0     0
SMALL
No Charge or Current Charge


@<TRIPOS>ATOM
      1 N1          -9.3000   -15.1760   -18.7700 n          1 WGI      -0.397800
      2 N3         -14.7580   -16.4080   -15.1220 ns         1 WGI      -0.513900
      3 C4          -9.6150   -13.8940   -18.0920 c5         1 WGI       0.046700
      4 C5          -8.6890   -12.9080   -18.8680 c5         1 WGI      -0.078400
      5 C6         -11.0960   -13.4220   -18.2630 c          1 WGI       0.596100
      6 C7         -14.5210   -16.6200   -16.5480 c5         1 WGI       0.098000
      7 C8         -14.2830   -15.1590   -17.0150 c5         1 WGI      -0.086400
      8 C10        -13.5120   -14.5730   -15.7980 c5         1 WGI      -0.157700
      9 C13        -12.8730   -10.7250   -16.7230 c3         1 WGI       0.150600
     10 C15        -11.8210   -18.3840   -19.8540 ca         1 WGI      -0.112300
     11 C17        -14.2370   -18.6110   -19.5700 ca         1 WGI      -0.111000
     12 C20        -12.0390   -17.7510   -21.0950 ca         1 WGI      -0.097000
     13 C21         -6.4900   -14.0950   -18.0540 c6         1 WGI      -0.065400
     14 C22         -5.7230   -12.8420   -17.5550 c6         1 WGI      -0.072900
     15 C24         -5.8360   -11.8760   -19.9140 c6         1 WGI      -0.072900
     16 C1         -10.0380   -16.3480   -18.5400 c          1 WGI       0.645100
     17 C11        -13.5130   -13.0200   -15.6890 c3         1 WGI      -0.069400
     18 C12        -12.8700   -12.2690   -16.8870 c3         1 WGI       0.105700
     19 C16        -12.9290   -18.8150   -19.0960 ca         1 WGI      -0.097000
     20 C18        -14.4470   -17.9750   -20.8040 ca         1 WGI      -0.113000
     21 C19        -13.3470   -17.5460   -21.5670 ca         1 WGI      -0.111000
     22 C2          -7.4540   -13.7870   -19.2550 c5         1 WGI      -0.065000
     23 C23         -4.9240   -12.1820   -18.7030 c6         1 WGI      -0.076400
     24 C25         -6.5840   -13.1490   -20.3840 c6         1 WGI      -0.065400
     25 C3          -8.1940   -15.0720   -19.7430 c5         1 WGI       0.124000
     26 C9         -14.1780   -15.2790   -14.6100 c          1 WGI       0.562000
     27 N2         -11.5040   -12.7590   -17.1230 ns         1 WGI      -0.498900
     28 O1          -9.6680   -17.3580   -19.3850 os         1 WGI      -0.452100
     29 O2         -10.8940   -16.4380   -17.6730 o          1 WGI      -0.547000
     30 O3         -11.8180   -13.5910   -19.2370 o          1 WGI      -0.602100
     31 O5         -14.3930   -14.8710   -13.4810 o          1 WGI      -0.574000
     32 H1         -15.3300   -16.9860   -14.5170 hn         1 WGI       0.321500
     33 H2          -9.3560   -13.9510   -17.0260 h1         1 WGI       0.064700
     34 H3          -8.4350   -12.0260   -18.2710 hc         1 WGI       0.065700
     35 H4          -9.1880   -12.5340   -19.7720 hc         1 WGI       0.065700
     36 H5         -15.3750   -17.0830   -17.0610 h1         1 WGI       0.048200
     37 H6         -13.6330   -17.2440   -16.7150 h1         1 WGI       0.048200
     38 H7         -13.7210   -15.1090   -17.9540 hc         1 WGI       0.062700
     39 H8         -15.2370   -14.6410   -17.1710 hc         1 WGI       0.062700
     40 H9         -12.4810   -14.9420   -15.8390 hc         1 WGI       0.100700
     41 H10        -12.3090   -10.4580   -15.8190 h1         1 WGI       0.025200
     42 H11        -12.3530   -10.2790   -17.5820 h1         1 WGI       0.025200
     43 H12        -15.0870   -18.9450   -18.9790 ha         1 WGI       0.114500
     44 H13        -11.1940   -17.4130   -21.6910 ha         1 WGI       0.119000
     45 H14         -7.0430   -14.5370   -17.2140 hc         1 WGI       0.044950
     46 H15         -5.7620   -14.8580   -18.3610 hc         1 WGI       0.044950
     47 H16         -5.0370   -13.1280   -16.7460 hc         1 WGI       0.040450
     48 H17         -6.4220   -12.1160   -17.1190 hc         1 WGI       0.040450
     49 H18         -5.2310   -11.4760   -20.7390 hc         1 WGI       0.040450
     50 H19         -6.5560   -11.0900   -19.6500 hc         1 WGI       0.040450
     51 H20        -12.9860   -12.7230   -14.7730 hc         1 WGI       0.064200
     52 H21        -14.5460   -12.6700   -15.5690 hc         1 WGI       0.064200
     53 H22        -13.4770   -12.4910   -17.7750 h1         1 WGI       0.094700
     54 H23        -10.4230   -18.9920   -18.3060 h1         1 WGI       0.070700
     55 H24         -9.9070   -19.3510   -19.9590 h1         1 WGI       0.070700
     56 H25        -12.7780   -19.3050   -18.1360 ha         1 WGI       0.119000
     57 H26        -15.4590   -17.8160   -21.1700 ha         1 WGI       0.113000
     58 H27        -13.5080   -17.0540   -22.5240 ha         1 WGI       0.114500
     59 H28         -4.1090   -12.8500   -19.0150 hc         1 WGI       0.041200
     60 H29         -4.4500   -11.2580   -18.3460 hc         1 WGI       0.041200
     61 H30         -7.2160   -12.9010   -21.2480 hc         1 WGI       0.044950
     62 H31         -5.8540   -13.8860   -20.7470 hc         1 WGI       0.044950
     63 H32         -8.5920   -14.9540   -20.7600 h1         1 WGI       0.060700
     64 H33         -7.5380   -15.9530   -19.7310 h1         1 WGI       0.060700
     65 H34        -10.8250   -12.6640   -16.3770 hn         1 WGI       0.313500
     66 H35        -14.1410    -9.2370   -16.5480 ho         1 WGI       0.446000
     67 O6         -14.2120   -10.2130   -16.6450 oh         1 WGI      -0.662000
     68 C14        -10.3990   -18.5970   -19.3310 c3         1 WGI       0.225900
@<TRIPOS>BOND
     1     1     3 1   
     2     1    16 1   
     3     1    25 1   
     4     2     6 1   
     5     2    26 1   
     6     2    32 1   
     7     3     4 1   
     8     3     5 1   
     9     3    33 1   
    10     4    22 1   
    11     4    34 1   
    12     4    35 1   
    13     5    27 1   
    14     5    30 2   
    15     6     7 1   
    16     6    36 1   
    17     6    37 1   
    18     7     8 1   
    19     7    38 1   
    20     7    39 1   
    21     8    17 1   
    22     8    26 1   
    23     8    40 1   
    24     9    18 1   
    25     9    41 1   
    26     9    42 1   
    27     9    67 1   
    28    10    12 ar  
    29    10    19 ar  
    30    10    68 1   
    31    11    19 ar  
    32    11    20 ar  
    33    11    43 1   
    34    12    21 ar  
    35    12    44 1   
    36    13    14 1   
    37    13    22 1   
    38    13    45 1   
    39    13    46 1   
    40    14    23 1   
    41    14    47 1   
    42    14    48 1   
    43    15    23 1   
    44    15    24 1   
    45    15    49 1   
    46    15    50 1   
    47    16    28 1   
    48    16    29 2   
    49    17    18 1   
    50    17    51 1   
    51    17    52 1   
    52    18    27 1   
    53    18    53 1   
    54    19    56 1   
    55    20    21 ar  
    56    20    57 1   
    57    21    58 1   
    58    22    24 1   
    59    22    25 1   
    60    23    59 1   
    61    23    60 1   
    62    24    61 1   
    63    24    62 1   
    64    25    63 1   
    65    25    64 1   
    66    26    31 2   
    67    27    65 1   
    68    28    68 1   
    69    54    68 1   
    70    55    68 1   
    71    66    67 1   
@<TRIPOS>SUBSTRUCTURE
     1 WGI         1 TEMP              0 ****  ****    0 ROOT
