@<TRIPOS>MOLECULE
WGK
   52    54     1     0     0
SMALL
No Charge or Current Charge


@<TRIPOS>ATOM
      1 C18         -3.9480    -2.6420     6.2700 ca         1 WGK      -0.189000
      2 C16         -5.3010    -2.4120     6.0400 ca         1 WGK       0.192100
      3 C15         -6.2040    -3.4820     6.1070 ca         1 WGK      -0.306000
      4 C14         -8.0670    -5.6730     6.2420 c3         1 WGK       0.149900
      5 C6           0.6590    -4.2420     6.7040 c6         1 WGK       0.215800
      6 C4           1.6700    -6.5520     8.2830 c6         1 WGK      -0.077400
      7 O3          -5.6940    -1.1210     5.7530 os         1 WGK      -0.348100
      8 C1           6.3930    -5.9150     8.1650 c3         1 WGK       0.163600
      9 C9          -2.4240    -6.3830     7.1550 ca         1 WGK      -0.238000
     10 C12         -4.3630    -5.0220     6.6410 ca         1 WGK      -0.170000
     11 O1           4.3150    -6.9810     6.6590 o          1 WGK      -0.487000
     12 O            5.0130    -5.5150     8.2830 os         1 WGK      -0.457100
     13 C            7.0040    -5.2390     6.9200 c3         1 WGK      -0.119100
     14 C3           2.6540    -5.5270     7.6630 c6         1 WGK      -0.123700
     15 C7           2.0680    -4.8170     6.4170 c6         1 WGK      -0.077400
     16 N           -0.2440    -5.2880     7.2730 nh         1 WGK      -0.778300
     17 C5           0.2800    -5.9140     8.5200 c6         1 WGK       0.215800
     18 C8          -1.6340    -5.2380     7.0660 ca         1 WGK       0.646900
     19 N1          -2.1390    -4.0360     6.7760 nb         1 WGK      -0.777000
     20 C19         -3.4660    -3.9200     6.5680 ca         1 WGK       0.384000
     21 C10         -3.8090    -6.3030     6.9450 ca         1 WGK       0.039700
     22 C17         -7.0660    -0.7690     5.4980 c3         1 WGK       0.151900
     23 C13         -5.7490    -4.7850     6.4050 ca         1 WGK       0.215100
     24 O2          -6.6530    -5.8290     6.4680 os         1 WGK      -0.353100
     25 H1          -3.2540    -1.8090     6.2180 ha         1 WGK       0.143000
     26 H2          -7.2560    -3.2990     5.9280 ha         1 WGK       0.120000
     27 H3          -8.5750    -6.6390     6.3460 h1         1 WGK       0.043033
     28 H4          -8.5050    -4.9800     6.9720 h1         1 WGK       0.043033
     29 H5          -8.2620    -5.2940     5.2310 h1         1 WGK       0.043033
     30 H6           0.7440    -3.3970     7.4050 h1         1 WGK       0.051700
     31 H7           0.2550    -3.8460     5.7600 h1         1 WGK       0.051700
     32 H8           1.5630    -7.4150     7.6120 hc         1 WGK       0.062700
     33 H9           2.0670    -6.9380     9.2320 hc         1 WGK       0.062700
     34 H10          6.9520    -5.5830     9.0500 h1         1 WGK       0.061200
     35 H11          6.4940    -7.0070     8.0990 h1         1 WGK       0.061200
     36 H12         -1.9550    -7.3360     7.3730 ha         1 WGK       0.119000
     37 H13         -5.1100    -7.8450     6.1160 hc         1 WGK       0.050700
     38 H14         -3.9580    -8.4580     7.2960 hc         1 WGK       0.050700
     39 H15         -5.3530    -7.5450     7.8560 hc         1 WGK       0.050700
     40 H16          8.0760    -5.4610     6.8610 hc         1 WGK       0.048367
     41 H17          6.5330    -5.5980     5.9980 hc         1 WGK       0.048367
     42 H18          6.8840    -4.1510     6.9750 hc         1 WGK       0.048367
     43 H19          2.7770    -4.7400     8.4210 hc         1 WGK       0.074700
     44 H20          2.0020    -5.5300     5.5840 hc         1 WGK       0.062700
     45 H21          2.7370    -4.0100     6.0860 hc         1 WGK       0.062700
     46 H22          0.3620    -5.1540     9.3100 h1         1 WGK       0.051700
     47 H23         -0.4030    -6.6910     8.8940 h1         1 WGK       0.051700
     48 H24         -7.1500     0.3050     5.2920 h1         1 WGK       0.040700
     49 H25         -7.4530    -1.3130     4.6270 h1         1 WGK       0.040700
     50 H26         -7.6950    -0.9990     6.3670 h1         1 WGK       0.040700
     51 C11         -4.6040    -7.6040     7.0580 c3         1 WGK      -0.050800
     52 C2           4.0750    -6.0790     7.4520 c          1 WGK       0.593100
@<TRIPOS>BOND
     1     1     2 ar  
     2     1    20 ar  
     3     1    25 1   
     4     2     3 ar  
     5     2     7 1   
     6     3    23 ar  
     7     3    26 1   
     8     4    24 1   
     9     4    27 1   
    10     4    28 1   
    11     4    29 1   
    12     5    15 1   
    13     5    16 1   
    14     5    30 1   
    15     5    31 1   
    16     6    14 1   
    17     6    17 1   
    18     6    32 1   
    19     6    33 1   
    20     7    22 1   
    21     8    12 1   
    22     8    13 1   
    23     8    34 1   
    24     8    35 1   
    25     9    18 ar  
    26     9    21 ar  
    27     9    36 1   
    28    10    20 ar  
    29    10    21 ar  
    30    10    23 ar  
    31    11    52 2   
    32    12    52 1   
    33    13    40 1   
    34    13    41 1   
    35    13    42 1   
    36    14    15 1   
    37    14    43 1   
    38    14    52 1   
    39    15    44 1   
    40    15    45 1   
    41    16    17 1   
    42    16    18 1   
    43    17    46 1   
    44    17    47 1   
    45    18    19 ar  
    46    19    20 ar  
    47    21    51 1   
    48    22    48 1   
    49    22    49 1   
    50    22    50 1   
    51    23    24 1   
    52    37    51 1   
    53    38    51 1   
    54    39    51 1   
@<TRIPOS>SUBSTRUCTURE
     1 WGK         1 TEMP              0 ****  ****    0 ROOT
