@<TRIPOS>MOLECULE
WGK
   52    54     1     0     0
SMALL
abcg2


@<TRIPOS>ATOM
      1 C18         -3.7350    -2.7190     6.0930 ca         1 WGK      -0.189000
      2 C16         -5.0530    -2.4560     5.7940 ca         1 WGK       0.192100
      3 C15         -6.0350    -3.4530     5.9420 ca         1 WGK      -0.306000
      4 C14         -7.9590    -5.4350     6.2510 c3         1 WGK       0.149900
      5 C6           0.6160    -4.3250     7.4180 c6         1 WGK       0.215800
      6 C4           1.6520    -6.9540     8.0950 c6         1 WGK      -0.077400
      7 O3          -5.3400    -1.2000     5.3570 os         1 WGK      -0.348100
      8 C1           6.2840    -5.4350     7.6870 c3         1 WGK       0.163600
      9 C9          -2.5060    -6.4380     7.4290 ca         1 WGK      -0.238000
     10 C12         -4.3210    -5.0320     6.7020 ca         1 WGK      -0.170000
     11 O1           4.2870    -7.1090     6.9530 o          1 WGK      -0.487000
     12 O            4.8980    -5.2630     8.0880 os         1 WGK      -0.457100
     13 C            6.5440    -4.7950     6.3390 c3         1 WGK      -0.119100
     14 C3           2.5980    -5.7590     8.0390 c6         1 WGK      -0.123700
     15 C7           2.0410    -4.7210     7.0510 c6         1 WGK      -0.077400
     16 N           -0.2550    -5.4950     7.5140 nh         1 WGK      -0.778300
     17 C5           0.2380    -6.5080     8.4470 c6         1 WGK       0.215800
     18 C8          -1.6050    -5.3440     7.2700 ca         1 WGK       0.646900
     19 N1          -2.0300    -4.1670     6.8450 nb         1 WGK      -0.777000
     20 C19         -3.3480    -3.9930     6.5510 ca         1 WGK       0.384000
     21 C10         -3.8420    -6.3030     7.1570 ca         1 WGK       0.039700
     22 C17         -6.6940    -0.8680     5.0500 c3         1 WGK       0.151900
     23 C13         -5.6740    -4.7120     6.3870 ca         1 WGK       0.215100
     24 O2          -6.5900    -5.6990     6.5470 os         1 WGK      -0.353100
     25 H1          -2.9850    -1.9470     5.9850 ha         1 WGK       0.143000
     26 H2          -7.0630    -3.2370     5.7100 ha         1 WGK       0.120000
     27 H3          -8.4870    -6.3620     6.4570 h1         1 WGK       0.043033
     28 H4          -8.3520    -4.6380     6.8870 h1         1 WGK       0.043033
     29 H5          -8.0890    -5.1630     5.2010 h1         1 WGK       0.043033
     30 H6           0.6170    -3.7840     8.3750 h1         1 WGK       0.051700
     31 H7           0.2100    -3.6560     6.6670 h1         1 WGK       0.051700
     32 H8           1.6440    -7.4580     7.1270 hc         1 WGK       0.062700
     33 H9           1.9890    -7.6760     8.8420 hc         1 WGK       0.062700
     34 H10          6.8520    -4.9470     8.4760 h1         1 WGK       0.061200
     35 H11          6.5180    -6.4980     7.6810 h1         1 WGK       0.061200
     36 H12         -2.1480    -7.4030     7.7490 ha         1 WGK       0.119000
     37 H13         -5.2210    -7.7880     6.4170 hc         1 WGK       0.050700
     38 H14         -4.1080    -8.3570     7.6750 hc         1 WGK       0.050700
     39 H15         -5.4950    -7.3320     8.0820 hc         1 WGK       0.050700
     40 H16          7.6040    -4.8870     6.0940 hc         1 WGK       0.048367
     41 H17          5.9660    -5.2840     5.5540 hc         1 WGK       0.048367
     42 H18          6.2870    -3.7350     6.3590 hc         1 WGK       0.048367
     43 H19          2.6560    -5.2910     9.0260 hc         1 WGK       0.074700
     44 H20          2.0520    -5.1430     6.0420 hc         1 WGK       0.062700
     45 H21          2.6650    -3.8250     7.0460 hc         1 WGK       0.062700
     46 H22          0.2250    -6.0980     9.4670 h1         1 WGK       0.051700
     47 H23         -0.4130    -7.3740     8.4390 h1         1 WGK       0.051700
     48 H24         -6.6800     0.1730     4.7390 h1         1 WGK       0.040700
     49 H25         -7.0780    -1.4870     4.2360 h1         1 WGK       0.040700
     50 H26         -7.3360    -0.9780     5.9270 h1         1 WGK       0.040700
     51 C11         -4.7150    -7.5150     7.3430 c3         1 WGK      -0.050800
     52 C2           3.9990    -6.1460     7.6320 c          1 WGK       0.593100
@<TRIPOS>BOND
     1     1     2 ar  
     2     1    20 ar  
     3     1    25 1   
     4     2     3 ar  
     5     2     7 1   
     6     3    23 ar  
     7     3    26 1   
     8     4    24 1   
     9     4    27 1   
    10     4    28 1   
    11     4    29 1   
    12     5    15 1   
    13     5    16 1   
    14     5    30 1   
    15     5    31 1   
    16     6    14 1   
    17     6    17 1   
    18     6    32 1   
    19     6    33 1   
    20     7    22 1   
    21     8    12 1   
    22     8    13 1   
    23     8    34 1   
    24     8    35 1   
    25     9    18 ar  
    26     9    21 ar  
    27     9    36 1   
    28    10    20 ar  
    29    10    21 ar  
    30    10    23 ar  
    31    11    52 2   
    32    12    52 1   
    33    13    40 1   
    34    13    41 1   
    35    13    42 1   
    36    14    15 1   
    37    14    43 1   
    38    14    52 1   
    39    15    44 1   
    40    15    45 1   
    41    16    17 1   
    42    16    18 1   
    43    17    46 1   
    44    17    47 1   
    45    18    19 ar  
    46    19    20 ar  
    47    21    51 1   
    48    22    48 1   
    49    22    49 1   
    50    22    50 1   
    51    23    24 1   
    52    37    51 1   
    53    38    51 1   
    54    39    51 1   
@<TRIPOS>SUBSTRUCTURE
     1 WGK         1 TEMP              0 ****  ****    0 ROOT
