@<TRIPOS>MOLECULE
WGL
   35    36     1     0     0
SMALL
abcg2


@<TRIPOS>ATOM
      1 C02          3.8490     7.1820    15.7910 c2         1 WGL       0.593800
      2 N03          4.4630     6.0380    15.7520 ne         1 WGL      -0.754100
      3 C04          5.3820     8.3170    14.3340 c          1 WGL       0.573000
      4 C05          5.9070     6.9540    13.9870 c6         1 WGL      -0.293400
      5 C06          5.5920     5.8750    14.9890 c          1 WGL       0.719500
      6 C13          4.4290    10.6170    16.2380 c6         1 WGL      -0.086900
      7 C17          3.6110    11.8700    16.5660 c6         1 WGL      -0.072400
      8 C18          2.2200    11.5300    14.4850 c6         1 WGL      -0.072400
      9 C19          3.0520    12.5220    15.3000 c6         1 WGL      -0.078400
     10 N01          4.2650     8.3510    15.1690 n          1 WGL      -0.359300
     11 O07          5.8760     9.3280    13.8790 o          1 WGL      -0.503000
     12 C08          3.5780     9.6510    15.4130 c6         1 WGL       0.116700
     13 S09          2.3660     7.2950    16.7260 ss         1 WGL      -0.264200
     14 O10          6.2890     4.8770    15.0860 o          1 WGL      -0.511100
     15 C12          2.2130     5.6140    17.4130 c3         1 WGL       0.069600
     16 C14          3.0280    10.2780    14.1320 c6         1 WGL      -0.086900
     17 H05          5.4230     6.6680    13.0440 hc         1 WGL       0.108700
     18 H1           6.9760     7.0150    13.7930 hc         1 WGL       0.108700
     19 H27          5.3220    10.8940    15.6780 hc         1 WGL       0.059200
     20 H33          2.8930     4.3710    19.0250 hc         1 WGL       0.048700
     21 H35          4.1250     5.4870    18.4180 hc         1 WGL       0.048700
     22 H34          2.8080     6.0890    19.4410 hc         1 WGL       0.048700
     23 H37          4.2340    12.5780    17.1180 hc         1 WGL       0.043450
     24 H36          2.7810    11.5960    17.2270 hc         1 WGL       0.043450
     25 H39          1.8580    12.0000    13.5670 hc         1 WGL       0.043450
     26 H38          1.3350    11.2400    15.0620 hc         1 WGL       0.043450
     27 H41          3.8820    12.8870    14.6860 hc         1 WGL       0.045200
     28 H40          2.4450    13.3920    15.5640 hc         1 WGL       0.045200
     29 H20          2.7110     9.4060    16.0230 h1         1 WGL       0.061700
     30 H25          1.1490     5.5480    17.6430 h1         1 WGL       0.083700
     31 H24          2.4420     4.9110    16.6160 h1         1 WGL       0.083700
     32 H28          2.4010     9.5490    13.6150 hc         1 WGL       0.059200
     33 H29          3.8460    10.5460    13.4630 hc         1 WGL       0.059200
     34 H26          4.7500    10.1170    17.1550 hc         1 WGL       0.059200
     35 C16          3.0660     5.3830    18.6510 c3         1 WGL      -0.086100
@<TRIPOS>BOND
     1     1     2 2   
     2     1    10 1   
     3     1    13 1   
     4     2     5 1   
     5     3     4 1   
     6     3    10 1   
     7     3    11 2   
     8     4     5 1   
     9     4    17 1   
    10     4    18 1   
    11     5    14 2   
    12     6     7 1   
    13     6    12 1   
    14     6    19 1   
    15     6    34 1   
    16     7     9 1   
    17     7    23 1   
    18     7    24 1   
    19     8     9 1   
    20     8    16 1   
    21     8    25 1   
    22     8    26 1   
    23     9    27 1   
    24     9    28 1   
    25    10    12 1   
    26    12    16 1   
    27    12    29 1   
    28    13    15 1   
    29    15    30 1   
    30    15    31 1   
    31    15    35 1   
    32    16    32 1   
    33    16    33 1   
    34    20    35 1   
    35    21    35 1   
    36    22    35 1   
@<TRIPOS>SUBSTRUCTURE
     1 WGL         1 TEMP              0 ****  ****    0 ROOT
