@<TRIPOS>MOLECULE
WGL
   35    36     1     0     0
SMALL
No Charge or Current Charge


@<TRIPOS>ATOM
      1 C02          3.8610     7.0460    15.6130 c2         1 WGL       0.593800
      2 N03          4.6750     6.0460    15.7480 ne         1 WGL      -0.754100
      3 C04          5.2770     8.1850    14.0500 c          1 WGL       0.573000
      4 C05          5.7930     6.8060    13.7460 c6         1 WGL      -0.293400
      5 C06          5.8880     6.1670    15.0970 c          1 WGL       0.719500
      6 C13          4.4390    10.3670    16.2440 c6         1 WGL      -0.086900
      7 C17          3.7130    11.6480    16.7270 c6         1 WGL      -0.072400
      8 C18          2.2600    11.6410    14.6190 c6         1 WGL      -0.072400
      9 C19          3.1890    12.4820    15.5300 c6         1 WGL      -0.078400
     10 N01          4.1440     8.2320    14.8890 n          1 WGL      -0.359300
     11 O07          5.8900     9.1760    13.6860 o          1 WGL      -0.503000
     12 C08          3.5250     9.5300    15.3090 c6         1 WGL       0.116700
     13 S09          2.1500     6.8550    16.1290 ss         1 WGL      -0.264200
     14 O10          6.9600     5.9310    15.6250 o          1 WGL      -0.511100
     15 C12          2.2040     5.4310    17.3120 c3         1 WGL       0.069600
     16 C14          2.9740    10.3590    14.1180 c6         1 WGL      -0.086900
     17 H05          4.9750     6.2920    13.2290 hc         1 WGL       0.108700
     18 H1           6.7470     6.8240    13.2070 hc         1 WGL       0.108700
     19 H27          5.3650    10.6520    15.7280 hc         1 WGL       0.059200
     20 H33          2.8610     4.9990    19.3440 hc         1 WGL       0.048700
     21 H35          3.9030     6.1540    18.4890 hc         1 WGL       0.048700
     22 H34          2.3160     6.6730    19.1030 hc         1 WGL       0.048700
     23 H37          4.3960    12.2570    17.3350 hc         1 WGL       0.043450
     24 H36          2.8740    11.3740    17.3820 hc         1 WGL       0.043450
     25 H39          1.9320    12.2440    13.7610 hc         1 WGL       0.043450
     26 H38          1.3500    11.3660    15.1710 hc         1 WGL       0.043450
     27 H41          4.0380    12.8620    14.9440 hc         1 WGL       0.045200
     28 H40          2.6480    13.3640    15.9010 hc         1 WGL       0.045200
     29 H20          2.6400     9.3180    15.9210 h1         1 WGL       0.061700
     30 H25          1.1750     5.1040    17.5080 h1         1 WGL       0.083700
     31 H24          2.7460     4.5900    16.8600 h1         1 WGL       0.083700
     32 H28          2.2720     9.7500    13.5330 hc         1 WGL       0.059200
     33 H29          3.7850    10.6450    13.4360 hc         1 WGL       0.059200
     34 H26          4.7390     9.7630    17.1120 hc         1 WGL       0.059200
     35 C16          2.8640     5.8420    18.6430 c3         1 WGL      -0.086100
@<TRIPOS>BOND
     1     1     2 2   
     2     1    10 1   
     3     1    13 1   
     4     2     5 1   
     5     3     4 1   
     6     3    10 1   
     7     3    11 2   
     8     4     5 1   
     9     4    17 1   
    10     4    18 1   
    11     5    14 2   
    12     6     7 1   
    13     6    12 1   
    14     6    19 1   
    15     6    34 1   
    16     7     9 1   
    17     7    23 1   
    18     7    24 1   
    19     8     9 1   
    20     8    16 1   
    21     8    25 1   
    22     8    26 1   
    23     9    27 1   
    24     9    28 1   
    25    10    12 1   
    26    12    16 1   
    27    12    29 1   
    28    13    15 1   
    29    15    30 1   
    30    15    31 1   
    31    15    35 1   
    32    16    32 1   
    33    16    33 1   
    34    20    35 1   
    35    21    35 1   
    36    22    35 1   
@<TRIPOS>SUBSTRUCTURE
     1 WGL         1 TEMP              0 ****  ****    0 ROOT
