@<TRIPOS>MOLECULE
WGM
   30    31     1     0     0
SMALL
abcg2


@<TRIPOS>ATOM
      1 N1           5.5070   -15.2250    -8.7570 nb         1 WGM      -0.754000
      2 C4           4.7270   -14.8110   -11.3030 c5         1 WGM       0.235800
      3 C5           3.8880   -14.7770   -12.5680 c5         1 WGM       0.158300
      4 C6           4.2130   -15.4310    -9.0050 ca         1 WGM       0.617900
      5 C7           5.9860   -15.3680    -7.5260 ca         1 WGM       0.380900
      6 C8           5.2180   -15.7320    -6.4410 ca         1 WGM      -0.210000
      7 C10          3.3610   -15.7610    -7.9290 ca         1 WGM       0.042000
      8 N            3.7970   -15.2780   -10.2850 nh         1 WGM      -0.787300
      9 O            3.2510   -13.5200   -12.6280 oh         1 WGM      -0.649000
     10 C1           2.9010   -15.9390   -12.3550 c5         1 WGM      -0.106000
     11 C2           1.6650   -15.8630   -13.2390 c3         1 WGM      -0.085600
     12 C3           2.5620   -15.7880   -10.8680 c5         1 WGM       0.247800
     13 C9           3.8550   -15.9250    -6.6640 ca         1 WGM      -0.074000
     14 F            2.0350   -15.8880    -8.1310 f          1 WGM      -0.182000
     15 H9           5.1350   -13.8280   -11.0560 h1         1 WGM       0.066200
     16 H8           5.5780   -15.4880   -11.4150 h1         1 WGM       0.066200
     17 H10          4.5120   -14.9430   -13.4560 h1         1 WGM       0.046700
     18 H12          7.0480   -15.1810    -7.4080 h4         1 WGM       0.017100
     19 H13          5.6490   -15.8480    -5.4570 ha         1 WGM       0.127000
     20 H1           4.4750   -17.4110   -11.9400 hc         1 WGM       0.040200
     21 H            2.9390   -18.1030   -12.4430 hc         1 WGM       0.040200
     22 H2           3.9840   -17.3260   -13.6310 hc         1 WGM       0.040200
     23 H11          2.7410   -13.4730   -13.4430 ho         1 WGM       0.442000
     24 H4           1.0780   -14.9600   -13.0630 hc         1 WGM       0.040200
     25 H5           1.9370   -15.8940   -14.2970 hc         1 WGM       0.040200
     26 H3           1.0070   -16.7130   -13.0530 hc         1 WGM       0.040200
     27 H7           1.7330   -15.0870   -10.7290 h1         1 WGM       0.058700
     28 H6           2.2720   -16.7470   -10.4360 h1         1 WGM       0.058700
     29 H14          3.1810   -16.1810    -5.8550 ha         1 WGM       0.130000
     30 C            3.6220   -17.2670   -12.6030 c3         1 WGM      -0.085600
@<TRIPOS>BOND
     1     1     4 ar  
     2     1     5 ar  
     3     2     3 1   
     4     2     8 1   
     5     2    15 1   
     6     2    16 1   
     7     3     9 1   
     8     3    10 1   
     9     3    17 1   
    10     4     7 ar  
    11     4     8 1   
    12     5     6 ar  
    13     5    18 1   
    14     6    13 ar  
    15     6    19 1   
    16     7    13 ar  
    17     7    14 1   
    18     8    12 1   
    19     9    23 1   
    20    10    11 1   
    21    10    12 1   
    22    10    30 1   
    23    11    24 1   
    24    11    25 1   
    25    11    26 1   
    26    12    27 1   
    27    12    28 1   
    28    13    29 1   
    29    20    30 1   
    30    21    30 1   
    31    22    30 1   
@<TRIPOS>SUBSTRUCTURE
     1 WGM         1 TEMP              0 ****  ****    0 ROOT
