@<TRIPOS>MOLECULE
WGM
   30    31     1     0     0
SMALL
No Charge or Current Charge


@<TRIPOS>ATOM
      1 N1           5.5800   -15.3360    -8.7020 nb         1 WGM      -0.754000
      2 C4           4.8110   -14.8290   -11.3410 c5         1 WGM       0.235800
      3 C5           3.8710   -14.7100   -12.5900 c5         1 WGM       0.158300
      4 C6           4.2580   -15.5040    -8.9260 ca         1 WGM       0.617900
      5 C7           6.0270   -15.4140    -7.4300 ca         1 WGM       0.380900
      6 C8           5.1840   -15.6590    -6.3340 ca         1 WGM      -0.210000
      7 C10          3.3300   -15.7520    -7.8680 ca         1 WGM       0.042000
      8 N            3.9130   -15.4050   -10.2950 nh         1 WGM      -0.787300
      9 O            3.1640   -13.4580   -12.6270 oh         1 WGM      -0.649000
     10 C1           2.9180   -15.9430   -12.3960 c5         1 WGM      -0.106000
     11 C2           1.6300   -15.8860   -13.2670 c3         1 WGM      -0.085600
     12 C3           2.6060   -15.8180   -10.8680 c5         1 WGM       0.247800
     13 C9           3.8070   -15.8300    -6.5510 ca         1 WGM      -0.074000
     14 F            1.9980   -15.8980    -8.0800 f          1 WGM      -0.182000
     15 H9           5.2120   -13.8470   -11.0540 h1         1 WGM       0.066200
     16 H8           5.6600   -15.4940   -11.5490 h1         1 WGM       0.066200
     17 H10          4.4590   -14.8130   -13.5130 h1         1 WGM       0.046700
     18 H12          7.0980   -15.2760    -7.2830 h4         1 WGM       0.017100
     19 H13          5.5990   -15.7110    -5.3320 ha         1 WGM       0.127000
     20 H1           4.5260   -17.4610   -12.1370 hc         1 WGM       0.040200
     21 H            2.9590   -18.1460   -12.5540 hc         1 WGM       0.040200
     22 H2           3.9230   -17.3290   -13.7920 hc         1 WGM       0.040200
     23 H11          2.5990   -13.4770   -13.4280 ho         1 WGM       0.442000
     24 H4           1.0190   -15.0040   -13.0390 hc         1 WGM       0.040200
     25 H5           1.8720   -15.8560   -14.3370 hc         1 WGM       0.040200
     26 H3           0.9950   -16.7640   -13.0960 hc         1 WGM       0.040200
     27 H7           1.8380   -15.0550   -10.6750 h1         1 WGM       0.058700
     28 H6           2.2500   -16.7740   -10.4600 h1         1 WGM       0.058700
     29 H14          3.1270   -16.0150    -5.7220 ha         1 WGM       0.130000
     30 C            3.6240   -17.2940   -12.7370 c3         1 WGM      -0.085600
@<TRIPOS>BOND
     1     1     4 ar  
     2     1     5 ar  
     3     2     3 1   
     4     2     8 1   
     5     2    15 1   
     6     2    16 1   
     7     3     9 1   
     8     3    10 1   
     9     3    17 1   
    10     4     7 ar  
    11     4     8 1   
    12     5     6 ar  
    13     5    18 1   
    14     6    13 ar  
    15     6    19 1   
    16     7    13 ar  
    17     7    14 1   
    18     8    12 1   
    19     9    23 1   
    20    10    11 1   
    21    10    12 1   
    22    10    30 1   
    23    11    24 1   
    24    11    25 1   
    25    11    26 1   
    26    12    27 1   
    27    12    28 1   
    28    13    29 1   
    29    20    30 1   
    30    21    30 1   
    31    22    30 1   
@<TRIPOS>SUBSTRUCTURE
     1 WGM         1 TEMP              0 ****  ****    0 ROOT
