@<TRIPOS>MOLECULE
WGP
   27    27     1     0     0
SMALL
No Charge or Current Charge


@<TRIPOS>ATOM
      1 N1          -9.6080    -8.8820   -16.4250 nu         1 WGP      -0.933200
      2 C4          -9.8040    -8.7300   -15.0500 ca         1 WGP       0.319000
      3 C5          -8.7420    -8.3920   -14.1900 ca         1 WGP      -0.173500
      4 C6          -8.9670    -8.2410   -12.8100 ca         1 WGP      -0.070500
      5 C7         -10.2580    -8.4260   -12.2870 ca         1 WGP      -0.156000
      6 C8         -11.3220    -8.7590   -13.1410 ca         1 WGP      -0.070500
      7 N           -6.3870   -10.9470   -17.0940 n          1 WGP      -0.413800
      8 C           -5.5950   -10.0110   -17.9250 c3         1 WGP       0.084800
      9 O           -8.3810   -11.5030   -16.1080 o          1 WGP      -0.592100
     10 C1          -5.7650   -12.2410   -16.7300 c3         1 WGP       0.084800
     11 C2          -7.7230   -10.6620   -16.7180 c          1 WGP       0.566100
     12 C3          -8.3170    -9.2530   -17.0990 c3         1 WGP       0.134800
     13 C9         -11.0920    -8.9090   -14.5200 ca         1 WGP      -0.173500
     14 H8         -10.4610    -9.1040   -16.9440 hn         1 WGP       0.474000
     15 H9          -7.7410    -8.2400   -14.5820 ha         1 WGP       0.107000
     16 H10         -8.1440    -7.9800   -12.1490 ha         1 WGP       0.106500
     17 H11        -10.4330    -8.3090   -11.2190 ha         1 WGP       0.112000
     18 H12        -12.3220    -8.9010   -12.7360 ha         1 WGP       0.106500
     19 H1          -6.1690    -9.7200   -18.8140 h1         1 WGP       0.041367
     20 H           -5.3480    -9.1150   -17.3420 h1         1 WGP       0.041367
     21 H2          -4.6610   -10.4820   -18.2570 h1         1 WGP       0.041367
     22 H4          -5.9210   -12.4430   -15.6630 h1         1 WGP       0.041367
     23 H5          -6.2210   -13.0470   -17.3190 h1         1 WGP       0.041367
     24 H3          -4.6850   -12.2220   -16.9260 h1         1 WGP       0.041367
     25 H7          -7.5540    -8.4980   -16.8700 h1         1 WGP       0.067200
     26 H6          -8.4490    -9.2510   -18.1890 h1         1 WGP       0.067200
     27 H13        -11.9200    -9.1670   -15.1750 ha         1 WGP       0.107000
@<TRIPOS>BOND
     1     1     2 1   
     2     1    12 1   
     3     1    14 1   
     4     2     3 ar  
     5     2    13 ar  
     6     3     4 ar  
     7     3    15 1   
     8     4     5 ar  
     9     4    16 1   
    10     5     6 ar  
    11     5    17 1   
    12     6    13 ar  
    13     6    18 1   
    14     7     8 1   
    15     7    10 1   
    16     7    11 1   
    17     8    19 1   
    18     8    20 1   
    19     8    21 1   
    20     9    11 2   
    21    10    22 1   
    22    10    23 1   
    23    10    24 1   
    24    11    12 1   
    25    12    25 1   
    26    12    26 1   
    27    13    27 1   
@<TRIPOS>SUBSTRUCTURE
     1 WGP         1 TEMP              0 ****  ****    0 ROOT
