@<TRIPOS>MOLECULE
WGP
   27    27     1     0     0
SMALL
bcc


@<TRIPOS>ATOM
      1 N1          -9.6150    -9.0820   -16.4340 nu         1 WGP      -0.739600
      2 C4          -9.7830    -8.8650   -15.0860 ca         1 WGP       0.180600
      3 C5          -8.7230    -8.5310   -14.2340 ca         1 WGP      -0.191500
      4 C6          -8.9570    -8.2530   -12.8950 ca         1 WGP      -0.088500
      5 C7         -10.2370    -8.3060   -12.3610 ca         1 WGP      -0.174000
      6 C8         -11.2920    -8.6460   -13.2010 ca         1 WGP      -0.088500
      7 N           -6.4470   -10.8880   -17.0570 n          1 WGP      -0.480800
      8 C           -5.6730   -10.0000   -17.8960 c3         1 WGP       0.084800
      9 O           -8.3330   -11.4380   -15.9410 o          1 WGP      -0.592100
     10 C1          -5.7740   -12.1280   -16.7370 c3         1 WGP       0.084800
     11 C2          -7.6980   -10.6440   -16.6180 c          1 WGP       0.633100
     12 C3          -8.3300    -9.3030   -17.0180 c3         1 WGP       0.134800
     13 C9         -11.0740    -8.9200   -14.5390 ca         1 WGP      -0.191500
     14 H8         -10.3710    -9.5730   -16.8820 hn         1 WGP       0.418800
     15 H9          -7.7060    -8.4860   -14.6030 ha         1 WGP       0.125000
     16 H10         -8.1170    -7.9970   -12.2610 ha         1 WGP       0.124500
     17 H11        -10.4100    -8.0940   -11.3140 ha         1 WGP       0.130000
     18 H12        -12.3020    -8.6990   -12.8110 ha         1 WGP       0.124500
     19 H1          -6.2050    -9.0880   -18.1430 h1         1 WGP       0.041367
     20 H           -4.7430    -9.7220   -17.3960 h1         1 WGP       0.041367
     21 H2          -5.4150   -10.4970   -18.8330 h1         1 WGP       0.041367
     22 H4          -6.3880   -12.7440   -16.0900 h1         1 WGP       0.041367
     23 H5          -5.5510   -12.6870   -17.6480 h1         1 WGP       0.041367
     24 H3          -4.8280   -11.9210   -16.2310 h1         1 WGP       0.041367
     25 H7          -7.6620    -8.4750   -16.7700 h1         1 WGP       0.067200
     26 H6          -8.4440    -9.2730   -18.1040 h1         1 WGP       0.067200
     27 H13        -11.9120    -9.1760   -15.1780 ha         1 WGP       0.125000
@<TRIPOS>BOND
     1     1     2 1   
     2     1    12 1   
     3     1    14 1   
     4     2     3 ar  
     5     2    13 ar  
     6     3     4 ar  
     7     3    15 1   
     8     4     5 ar  
     9     4    16 1   
    10     5     6 ar  
    11     5    17 1   
    12     6    13 ar  
    13     6    18 1   
    14     7     8 1   
    15     7    10 1   
    16     7    11 1   
    17     8    19 1   
    18     8    20 1   
    19     8    21 1   
    20     9    11 2   
    21    10    22 1   
    22    10    23 1   
    23    10    24 1   
    24    11    12 1   
    25    12    25 1   
    26    12    26 1   
    27    13    27 1   
@<TRIPOS>SUBSTRUCTURE
     1 WGP         1 TEMP              0 ****  ****    0 ROOT
