@<TRIPOS>MOLECULE
WGQ
   26    27     1     0     0
SMALL
No Charge or Current Charge


@<TRIPOS>ATOM
      1 C02          5.0780     6.3760    18.4780 cc         1 WGQ       0.410500
      2 N03          3.9950     5.8380    17.9430 nd         1 WGQ      -0.477300
      3 C04          5.6820     5.8130    16.3820 cs         1 WGQ       0.380400
      4 C06          5.1640     6.8590    19.8650 ca         1 WGQ      -0.117900
      5 C10          7.9430     8.0800    17.2830 c2         1 WGQ      -0.248200
      6 C11          7.1330     9.0330    16.7840 c2         1 WGQ      -0.288000
      7 C15          5.8790     8.5040    21.5350 ca         1 WGQ      -0.105000
      8 C16          5.1790     7.8100    22.5350 ca         1 WGQ      -0.080000
      9 N01          6.1240     6.3620    17.5580 n          1 WGQ      -0.251300
     10 N05          4.3810     5.5150    16.6720 ns         1 WGQ      -0.281400
     11 S07          6.4990     5.4790    14.9610 s          1 WGQ      -0.600400
     12 C08          4.4300     6.1950    20.8750 ca         1 WGQ      -0.060000
     13 C09          7.5320     6.7170    17.8240 c3         1 WGQ       0.143200
     14 C12          4.4490     6.6600    22.2000 ca         1 WGQ       0.116000
     15 Cl13         3.5480     5.8010    23.4440 cl         1 WGQ      -0.195000
     16 C14          5.8610     8.0400    20.2080 ca         1 WGQ      -0.085000
     17 H21          9.0210     8.2520    17.3260 ha         1 WGQ       0.185000
     18 H23          7.5310     9.9820    16.4190 ha         1 WGQ       0.170000
     19 H22          6.0510     8.9080    16.7180 ha         1 WGQ       0.170000
     20 H25          6.4270     9.4100    21.7860 ha         1 WGQ       0.126000
     21 H26          5.1890     8.1690    23.5610 ha         1 WGQ       0.136000
     22 H17          3.7720     5.0640    15.9820 hn         1 WGQ       0.508000
     23 H18          3.8520     5.3050    20.6360 ha         1 WGQ       0.146000
     24 H20          7.7250     6.6690    18.9030 h1         1 WGQ       0.084200
     25 H19          8.1690     5.9470    17.3670 h1         1 WGQ       0.084200
     26 H24          6.3790     8.6180    19.4480 ha         1 WGQ       0.131000
@<TRIPOS>BOND
     1     1     2 2   
     2     1     4 1   
     3     1     9 1   
     4     2    10 1   
     5     3     9 1   
     6     3    10 1   
     7     3    11 2   
     8     4    12 ar  
     9     4    16 ar  
    10     5     6 2   
    11     5    13 1   
    12     5    17 1   
    13     6    18 1   
    14     6    19 1   
    15     7     8 ar  
    16     7    16 ar  
    17     7    20 1   
    18     8    14 ar  
    19     8    21 1   
    20     9    13 1   
    21    10    22 1   
    22    12    14 ar  
    23    12    23 1   
    24    13    24 1   
    25    13    25 1   
    26    14    15 1   
    27    16    26 1   
@<TRIPOS>SUBSTRUCTURE
     1 WGQ         1 TEMP              0 ****  ****    0 ROOT
