@<TRIPOS>MOLECULE
WGQ
   26    27     1     0     0
SMALL
abcg2


@<TRIPOS>ATOM
      1 C02          5.0910     6.4100    18.4800 cc         1 WGQ       0.410500
      2 N03          4.0050     5.9310    17.9390 nd         1 WGQ      -0.477300
      3 C04          5.6780     5.7960    16.4160 cs         1 WGQ       0.380400
      4 C06          5.1550     6.9050    19.8590 ca         1 WGQ      -0.117900
      5 C10          7.9200     8.0720    17.3530 c2         1 WGQ      -0.248200
      6 C11          7.1140     8.9630    16.7940 c2         1 WGQ      -0.288000
      7 C15          5.8570     8.5160    21.5090 ca         1 WGQ      -0.105000
      8 C16          5.1780     7.8180    22.5010 ca         1 WGQ      -0.080000
      9 N01          6.1430     6.3520    17.5860 n          1 WGQ      -0.251300
     10 N05          4.3790     5.5630    16.6830 ns         1 WGQ      -0.281400
     11 S07          6.5250     5.4620    15.0070 s          1 WGQ      -0.600400
     12 C08          4.4670     6.1960    20.8480 ca         1 WGQ      -0.060000
     13 C09          7.5370     6.6990    17.8160 c3         1 WGQ       0.143200
     14 C12          4.4890     6.6630    22.1520 ca         1 WGQ       0.116000
     15 CL13         3.6330     5.7720    23.3900 cl         1 WGQ      -0.195000
     16 C14          5.8480     8.0700    20.1950 ca         1 WGQ      -0.085000
     17 H21          8.9680     8.3070    17.5140 ha         1 WGQ       0.185000
     18 H23          7.4830     9.9340    16.4910 ha         1 WGQ       0.170000
     19 H22          6.0640     8.7600    16.6180 ha         1 WGQ       0.170000
     20 H25          6.3910     9.4220    21.7660 ha         1 WGQ       0.126000
     21 H26          5.1840     8.1620    23.5260 ha         1 WGQ       0.136000
     22 H17          3.7080     5.1670    16.0440 hn         1 WGQ       0.508000
     23 H18          3.9340     5.2900    20.5980 ha         1 WGQ       0.146000
     24 H20          7.7410     6.5850    18.8820 h1         1 WGQ       0.084200
     25 H19          8.1400     5.9540    17.2920 h1         1 WGQ       0.084200
     26 H24          6.3590     8.6390    19.4330 ha         1 WGQ       0.131000
@<TRIPOS>BOND
     1     1     2 2   
     2     1     4 1   
     3     1     9 1   
     4     2    10 1   
     5     3     9 1   
     6     3    10 1   
     7     3    11 2   
     8     4    12 ar  
     9     4    16 ar  
    10     5     6 2   
    11     5    13 1   
    12     5    17 1   
    13     6    18 1   
    14     6    19 1   
    15     7     8 ar  
    16     7    16 ar  
    17     7    20 1   
    18     8    14 ar  
    19     8    21 1   
    20     9    13 1   
    21    10    22 1   
    22    12    14 ar  
    23    12    23 1   
    24    13    24 1   
    25    13    25 1   
    26    14    15 1   
    27    16    26 1   
@<TRIPOS>SUBSTRUCTURE
     1 WGQ         1 TEMP              0 ****  ****    0 ROOT
