@<TRIPOS>MOLECULE
WGR
  135   137     1     0     0
SMALL
abcg2


@<TRIPOS>ATOM
      1 N           17.1360     9.6250    -2.2710 ns         1 WGR      -0.511900
      2 C           14.3940    16.5310    -9.6560 c3         1 WGR      -0.089100
      3 O           17.2110     9.5700    -4.5230 o          1 WGR      -0.607100
      4 C1          14.4440    15.4670   -10.7450 c3         1 WGR      -0.073400
      5 C10         21.8160    15.0120   -11.5590 c3         1 WGR      -0.073400
      6 C11         21.8900    14.7390   -10.0580 c3         1 WGR      -0.072400
      7 C12         21.0730    13.5370    -9.5980 c3         1 WGR      -0.075400
      8 C13         21.2120    13.2590    -8.1060 c3         1 WGR      -0.075400
      9 C14         20.4700    12.0070    -7.6540 c3         1 WGR      -0.075400
     10 C15         20.6050    11.7430    -6.1600 c3         1 WGR      -0.071400
     11 C16         19.9070    10.4550    -5.7210 c3         1 WGR      -0.061200
     12 C17         20.1230    10.1910    -4.2680 c2         1 WGR      -0.117200
     13 C18         19.2540     9.8800    -3.3030 ce         1 WGR      -0.310200
     14 C19         17.7910     9.6790    -3.4480 c          1 WGR       0.606300
     15 C2          14.5990    16.0290   -12.1550 c3         1 WGR      -0.074400
     16 C20         15.7130     9.3960    -2.1670 c3         1 WGR       0.109000
     17 C21         15.3130     7.9260    -2.2510 c3         1 WGR      -0.107400
     18 C22         15.8930     7.0880    -1.1190 c3         1 WGR      -0.069400
     19 C23         15.6450     5.5850    -1.2100 c3         1 WGR      -0.085400
     20 C24         14.1750     5.1730    -1.1430 c3         1 WGR       0.060700
     21 C25         13.1290     3.2540    -0.0140 c          1 WGR       0.615100
     22 C26         13.1830     1.7360     0.1940 c5         1 WGR       0.042200
     23 C27         11.9060     1.1250    -0.3730 c3         1 WGR      -0.076100
     24 C28         13.3790     1.4070     1.6950 c5         1 WGR       0.127600
     25 C29         15.1110     0.6890     0.5000 ce         1 WGR       0.695200
     26 C3          15.8830    16.8210   -12.3740 c3         1 WGR      -0.076400
     27 C30         16.3900     0.0410     0.2630 ca         1 WGR      -0.272900
     28 C31         17.1830    -0.4080     1.3230 ca         1 WGR      -0.019000
     29 C32         18.3960    -1.0220     1.0890 ca         1 WGR      -0.174000
     30 C33         18.8280    -1.1940    -0.2250 ca         1 WGR      -0.039000
     31 C34         18.0610    -0.7610    -1.2880 ca         1 WGR      -0.176000
     32 C35         16.8320    -0.1370    -1.0650 ca         1 WGR       0.219100
     33 C36         13.4470     5.3730    -2.4690 c          1 WGR       0.584100
     34 C37         11.4350     6.1680    -3.4640 c3         1 WGR       0.188300
     35 C38         11.8110     7.4430    -4.1930 c3         1 WGR      -0.119100
     36 C39         10.0190     6.2100    -2.9330 c3         1 WGR      -0.163400
     37 C4          16.1060    17.1800   -13.8390 c3         1 WGR      -0.074400
     38 C40          9.5870     4.9120    -2.2760 c          1 WGR       0.615100
     39 C41          7.8540     3.9120    -0.8620 c3         1 WGR       0.039700
     40 C42          8.5260     3.4450     0.4440 c3         1 WGR      -0.092400
     41 C43          8.2460     1.9890     0.7940 c3         1 WGR      -0.073400
     42 C44          6.7900     1.6480     1.0800 c3         1 WGR      -0.100400
     43 C45          5.8520     1.9500    -0.0800 c3         1 WGR       0.111000
     44 C46          6.4080     4.3320    -0.6080 c          1 WGR       0.555000
     45 C5          17.2990    18.1010   -14.0880 c3         1 WGR      -0.071400
     46 C6          18.6280    17.6090   -13.5210 c3         1 WGR      -0.074400
     47 C7          19.0710    16.2530   -14.0590 c3         1 WGR      -0.073400
     48 C8          20.4310    15.7970   -13.5380 c3         1 WGR      -0.074400
     49 C9          20.4560    15.5050   -12.0400 c3         1 WGR      -0.077400
     50 N1          14.0670     3.7640    -0.8210 ns         1 WGR      -0.488900
     51 N2          14.3560     1.1430    -0.4260 n2         1 WGR      -0.744900
     52 N3           8.5280     5.0350    -1.4620 ns         1 WGR      -0.498900
     53 N4           5.5590     3.3620    -0.2510 ns         1 WGR      -0.500900
     54 O1          12.2680     3.9150     0.5460 o          1 WGR      -0.603100
     55 O2          14.6880     0.8210     1.7530 os         1 WGR      -0.436600
     56 O3          16.1250     0.2580    -2.1210 oh         1 WGR      -0.544100
     57 O4          13.8750     4.9670    -3.5190 o          1 WGR      -0.483000
     58 O5          12.2870     5.9840    -2.3130 os         1 WGR      -0.437100
     59 O6          10.1360     3.8430    -2.5050 o          1 WGR      -0.613100
     60 H1          17.6640     9.7040    -1.4170 hn         1 WGR       0.310500
     61 H2          14.2240    16.0840    -8.6760 hc         1 WGR       0.030700
     62 H3          15.3230    17.0980    -9.5980 hc         1 WGR       0.030700
     63 H4          13.5850    17.2430    -9.8380 hc         1 WGR       0.030700
     64 H5          13.5320    14.8660   -10.7010 hc         1 WGR       0.036700
     65 H6          15.2690    14.7770   -10.5420 hc         1 WGR       0.036700
     66 H7          22.0900    14.1020   -12.1040 hc         1 WGR       0.036700
     67 H8          22.5710    15.7590   -11.8220 hc         1 WGR       0.036700
     68 H9          22.9360    14.5760    -9.7790 hc         1 WGR       0.036200
     69 H10         21.5690    15.6330    -9.5110 hc         1 WGR       0.036200
     70 H11         20.0150    13.6840    -9.8370 hc         1 WGR       0.039200
     71 H12         21.3910    12.6530   -10.1620 hc         1 WGR       0.039200
     72 H13         22.2740    13.1570    -7.8540 hc         1 WGR       0.036200
     73 H14         20.8490    14.1230    -7.5400 hc         1 WGR       0.036200
     74 H15         19.4100    12.0950    -7.9150 hc         1 WGR       0.040700
     75 H16         20.8490    11.1420    -8.2100 hc         1 WGR       0.040700
     76 H17         21.6660    11.6900    -5.8940 hc         1 WGR       0.036700
     77 H18         20.1930    12.5890    -5.6010 hc         1 WGR       0.036700
     78 H19         18.8500    10.4890    -5.9720 hc         1 WGR       0.070200
     79 H20         20.3380     9.6180    -6.2840 hc         1 WGR       0.070200
     80 H21         21.1590    10.2860    -3.9510 ha         1 WGR       0.161000
     81 H22         19.6490     9.7650    -2.2990 ha         1 WGR       0.169000
     82 H23         13.7370    16.6620   -12.3930 hc         1 WGR       0.035700
     83 H24         14.5690    15.1980   -12.8680 hc         1 WGR       0.035700
     84 H25         15.3870     9.8120    -1.2120 h1         1 WGR       0.050700
     85 H26         15.2030     9.9610    -2.9480 h1         1 WGR       0.050700
     86 H27         14.2200     7.8980    -2.2230 hc         1 WGR       0.060200
     87 H28         15.6130     7.5200    -3.2210 hc         1 WGR       0.060200
     88 H29         16.9760     7.2320    -1.0850 hc         1 WGR       0.039200
     89 H30         15.5060     7.4570    -0.1640 hc         1 WGR       0.039200
     90 H31         16.1030     5.1780    -2.1150 hc         1 WGR       0.059700
     91 H32         16.1490     5.1080    -0.3670 hc         1 WGR       0.059700
     92 H33         13.6730     5.7370    -0.3560 h1         1 WGR       0.099700
     93 H34         11.9350     0.0410    -0.2620 hc         1 WGR       0.056700
     94 H35         11.0300     1.4970     0.1570 hc         1 WGR       0.056700
     95 H36         11.7940     1.3610    -1.4310 hc         1 WGR       0.056700
     96 H37         13.3530     2.2750     2.3510 h1         1 WGR       0.079200
     97 H38         12.6550     0.6720     2.0520 h1         1 WGR       0.079200
     98 H39         16.7300    16.2330   -12.0040 hc         1 WGR       0.039200
     99 H40         15.8680    17.7380   -11.7760 hc         1 WGR       0.039200
    100 H41         16.8410    -0.2710     2.3410 ha         1 WGR       0.126000
    101 H42         19.0020    -1.3650     1.9160 ha         1 WGR       0.121000
    102 H43         19.7780    -1.6750    -0.4210 ha         1 WGR       0.116000
    103 H44         18.4020    -0.8990    -2.3070 ha         1 WGR       0.134000
    104 H45         11.5510     5.3130    -4.1310 h1         1 WGR       0.085700
    105 H46         12.8300     7.3990    -4.5760 hc         1 WGR       0.049700
    106 H47         11.1440     7.5860    -5.0430 hc         1 WGR       0.049700
    107 H48         11.7220     8.3150    -3.5440 hc         1 WGR       0.049700
    108 H49          9.3450     6.3970    -3.7740 hc         1 WGR       0.071200
    109 H50          9.8890     7.0520    -2.2470 hc         1 WGR       0.071200
    110 H51         15.2060    17.6670   -14.2290 hc         1 WGR       0.035700
    111 H52         16.2140    16.2570   -14.4180 hc         1 WGR       0.035700
    112 H53          7.8670     3.0780    -1.5730 h1         1 WGR       0.079700
    113 H54          9.6030     3.5660     0.3210 hc         1 WGR       0.068700
    114 H55          8.2360     4.1060     1.2670 hc         1 WGR       0.068700
    115 H56          8.6000     1.3600    -0.0300 hc         1 WGR       0.044700
    116 H57          8.8520     1.7200     1.6630 hc         1 WGR       0.044700
    117 H58          6.4390     2.1790     1.9700 hc         1 WGR       0.050200
    118 H59          6.7190     0.5810     1.3040 hc         1 WGR       0.050200
    119 H60          4.8930     1.4630     0.0860 h1         1 WGR       0.048700
    120 H61          6.2500     1.5300    -1.0090 h1         1 WGR       0.048700
    121 H62         17.0800    19.0840   -13.6590 hc         1 WGR       0.035700
    122 H63         17.4040    18.2580   -15.1670 hc         1 WGR       0.035700
    123 H64         18.5660    17.5770   -12.4300 hc         1 WGR       0.037200
    124 H65         19.4020    18.3490   -13.7510 hc         1 WGR       0.037200
    125 H66         19.1010    16.3010   -15.1520 hc         1 WGR       0.038700
    126 H67         18.3250    15.4900   -13.8120 hc         1 WGR       0.038700
    127 H68         20.7330    14.8930   -14.0760 hc         1 WGR       0.036200
    128 H69         21.1870    16.5550   -13.7740 hc         1 WGR       0.036200
    129 H70         20.1900    16.4050   -11.4780 hc         1 WGR       0.038700
    130 H71         19.6810    14.7660   -11.8130 hc         1 WGR       0.038700
    131 H72         14.7180     3.1240    -1.2550 hn         1 WGR       0.343500
    132 H73          8.0880     5.9360    -1.3470 hn         1 WGR       0.339500
    133 H74          4.6220     3.6650    -0.0290 hn         1 WGR       0.317500
    134 H75         15.2840     0.6740    -1.8070 ho         1 WGR       0.523000
    135 O7           6.0640     5.5040    -0.7000 o          1 WGR      -0.584000
@<TRIPOS>BOND
     1     1    14 1   
     2     1    16 1   
     3     1    60 1   
     4     2     4 1   
     5     2    61 1   
     6     2    62 1   
     7     2    63 1   
     8     3    14 2   
     9     4    15 1   
    10     4    64 1   
    11     4    65 1   
    12     5     6 1   
    13     5    49 1   
    14     5    66 1   
    15     5    67 1   
    16     6     7 1   
    17     6    68 1   
    18     6    69 1   
    19     7     8 1   
    20     7    70 1   
    21     7    71 1   
    22     8     9 1   
    23     8    72 1   
    24     8    73 1   
    25     9    10 1   
    26     9    74 1   
    27     9    75 1   
    28    10    11 1   
    29    10    76 1   
    30    10    77 1   
    31    11    12 1   
    32    11    78 1   
    33    11    79 1   
    34    12    13 2   
    35    12    80 1   
    36    13    14 1   
    37    13    81 1   
    38    15    26 1   
    39    15    82 1   
    40    15    83 1   
    41    16    17 1   
    42    16    84 1   
    43    16    85 1   
    44    17    18 1   
    45    17    86 1   
    46    17    87 1   
    47    18    19 1   
    48    18    88 1   
    49    18    89 1   
    50    19    20 1   
    51    19    90 1   
    52    19    91 1   
    53    20    33 1   
    54    20    50 1   
    55    20    92 1   
    56    21    22 1   
    57    21    50 1   
    58    21    54 2   
    59    22    23 1   
    60    22    24 1   
    61    22    51 1   
    62    23    93 1   
    63    23    94 1   
    64    23    95 1   
    65    24    55 1   
    66    24    96 1   
    67    24    97 1   
    68    25    27 1   
    69    25    51 2   
    70    25    55 1   
    71    26    37 1   
    72    26    98 1   
    73    26    99 1   
    74    27    28 ar  
    75    27    32 ar  
    76    28    29 ar  
    77    28   100 1   
    78    29    30 ar  
    79    29   101 1   
    80    30    31 ar  
    81    30   102 1   
    82    31    32 ar  
    83    31   103 1   
    84    32    56 1   
    85    33    57 2   
    86    33    58 1   
    87    34    35 1   
    88    34    36 1   
    89    34    58 1   
    90    34   104 1   
    91    35   105 1   
    92    35   106 1   
    93    35   107 1   
    94    36    38 1   
    95    36   108 1   
    96    36   109 1   
    97    37    45 1   
    98    37   110 1   
    99    37   111 1   
   100    38    52 1   
   101    38    59 2   
   102    39    40 1   
   103    39    44 1   
   104    39    52 1   
   105    39   112 1   
   106    40    41 1   
   107    40   113 1   
   108    40   114 1   
   109    41    42 1   
   110    41   115 1   
   111    41   116 1   
   112    42    43 1   
   113    42   117 1   
   114    42   118 1   
   115    43    53 1   
   116    43   119 1   
   117    43   120 1   
   118    44    53 1   
   119    44   135 2   
   120    45    46 1   
   121    45   121 1   
   122    45   122 1   
   123    46    47 1   
   124    46   123 1   
   125    46   124 1   
   126    47    48 1   
   127    47   125 1   
   128    47   126 1   
   129    48    49 1   
   130    48   127 1   
   131    48   128 1   
   132    49   129 1   
   133    49   130 1   
   134    50   131 1   
   135    52   132 1   
   136    53   133 1   
   137    56   134 1   
@<TRIPOS>SUBSTRUCTURE
     1 WGR         1 TEMP              0 ****  ****    0 ROOT
