@<TRIPOS>MOLECULE
WGR
  135   137     1     0     0
SMALL
No Charge or Current Charge


@<TRIPOS>ATOM
      1 N           14.4200    10.0500    -2.2260 ns         1 WGR      -0.511900
      2 C           14.5460    17.3930   -11.3800 c3         1 WGR      -0.089100
      3 O           15.5110     9.8590    -4.2130 o          1 WGR      -0.607100
      4 C1          14.9340    16.0230   -11.9740 c3         1 WGR      -0.073400
      5 C10         22.4370    14.3190   -10.2640 c3         1 WGR      -0.073400
      6 C11         22.0810    14.3450    -8.7580 c3         1 WGR      -0.072400
      7 C12         20.8710    13.4620    -8.3700 c3         1 WGR      -0.075400
      8 C13         20.5970    13.4480    -6.8500 c3         1 WGR      -0.075400
      9 C14         19.3860    12.5710    -6.4640 c3         1 WGR      -0.075400
     10 C15         19.1060    12.5580    -4.9450 c3         1 WGR      -0.071400
     11 C16         17.8960    11.6780    -4.5610 c3         1 WGR      -0.061200
     12 C17         17.6120    11.6700    -3.0680 c2         1 WGR      -0.117200
     13 C18         16.5940    11.0440    -2.4260 ce         1 WGR      -0.310200
     14 C19         15.4970    10.2510    -3.0560 c          1 WGR       0.606300
     15 C2          15.7130    16.1020   -13.3090 c3         1 WGR      -0.074400
     16 C20         13.2170     9.2940    -2.5840 c3         1 WGR       0.109000
     17 C21         13.4430     7.7660    -2.5880 c3         1 WGR      -0.107400
     18 C22         13.8210     7.1840    -1.2030 c3         1 WGR      -0.069400
     19 C23         14.1850     5.6770    -1.1920 c3         1 WGR      -0.085400
     20 C24         12.9990     4.6800    -1.3150 c3         1 WGR       0.060700
     21 C25         13.5620     2.8270     0.3260 c          1 WGR       0.615100
     22 C26         14.1560     1.3610     0.2750 c5         1 WGR       0.042200
     23 C27         13.0940     0.3320     0.7230 c3         1 WGR      -0.076100
     24 C28         15.4430     1.3540     1.1400 c5         1 WGR       0.127600
     25 C29         15.9800     1.1760    -1.0070 ce         1 WGR       0.695200
     26 C3          17.1070    16.7620   -13.1950 c3         1 WGR      -0.076400
     27 C30         16.9040     0.9780    -2.1600 ca         1 WGR      -0.272900
     28 C31         18.2480     1.4060    -2.0610 ca         1 WGR      -0.019000
     29 C32         19.1310     1.2390    -3.1410 ca         1 WGR      -0.174000
     30 C33         18.6880     0.6460    -4.3330 ca         1 WGR      -0.039000
     31 C34         17.3540     0.2220    -4.4420 ca         1 WGR      -0.176000
     32 C35         16.4680     0.3870    -3.3680 ca         1 WGR       0.219100
     33 C36         12.3510     4.6470    -2.7230 c          1 WGR       0.584100
     34 C37         10.2300     5.0180    -3.8500 c3         1 WGR       0.188300
     35 C38         10.6400     6.1070    -4.8640 c3         1 WGR      -0.119100
     36 C39          8.7830     5.1870    -3.3540 c3         1 WGR      -0.163400
     37 C4          17.8940    16.7390   -14.5270 c3         1 WGR      -0.074400
     38 C40          8.4600     4.1150    -2.3180 c          1 WGR       0.615100
     39 C41          8.2490     3.6930     0.1740 c3         1 WGR       0.039700
     40 C42          9.5440     2.8950     0.4800 c3         1 WGR      -0.092400
     41 C43          9.3260     1.6450     1.3600 c3         1 WGR      -0.073400
     42 C44          8.7560     1.9200     2.7680 c3         1 WGR      -0.100400
     43 C45          7.3320     2.5120     2.7780 c3         1 WGR       0.111000
     44 C46          7.8040     4.5750     1.3820 c          1 WGR       0.555000
     45 C5          19.2580    17.4730   -14.4810 c3         1 WGR      -0.071400
     46 C6          20.2770    16.9420   -13.4410 c3         1 WGR      -0.074400
     47 C7          20.6800    15.4590   -13.6410 c3         1 WGR      -0.073400
     48 C8          21.7810    14.9620   -12.6740 c3         1 WGR      -0.074400
     49 C9          21.3520    14.9200   -11.1890 c3         1 WGR      -0.077400
     50 N1          13.4290     3.3150    -0.9540 ns         1 WGR      -0.488900
     51 N2          14.7010     0.9490    -1.0680 n2         1 WGR      -0.744900
     52 N3           8.4500     4.5510    -1.0130 ns         1 WGR      -0.498900
     53 N4           7.3020     3.9480     2.4990 ns         1 WGR      -0.500900
     54 O1          13.2710     3.4780     1.3210 o          1 WGR      -0.603100
     55 O2          16.4690     1.6580     0.1810 os         1 WGR      -0.436600
     56 O3          15.1850    -0.0400    -3.5100 oh         1 WGR      -0.544100
     57 O4          12.8190     4.0190    -3.6660 o          1 WGR      -0.483000
     58 O5          11.0670     5.1300    -2.6840 os         1 WGR      -0.437100
     59 O6           8.2070     2.9590    -2.6260 o          1 WGR      -0.613100
     60 H1          14.4860    10.4380    -1.2940 hn         1 WGR       0.310500
     61 H2          13.9260    17.2560   -10.4850 hc         1 WGR       0.030700
     62 H3          15.4350    17.9650   -11.0890 hc         1 WGR       0.030700
     63 H4          13.9730    17.9830   -12.1050 hc         1 WGR       0.030700
     64 H5          14.0170    15.4440   -12.1400 hc         1 WGR       0.036700
     65 H6          15.5270    15.4650   -11.2380 hc         1 WGR       0.036700
     66 H7          22.6420    13.2850   -10.5680 hc         1 WGR       0.036700
     67 H8          23.3700    14.8780   -10.4070 hc         1 WGR       0.036700
     68 H9          22.9580    14.0100    -8.1920 hc         1 WGR       0.036200
     69 H10         21.8880    15.3810    -8.4510 hc         1 WGR       0.036200
     70 H11         19.9730    13.8220    -8.8850 hc         1 WGR       0.039200
     71 H12         21.0500    12.4360    -8.7140 hc         1 WGR       0.039200
     72 H13         21.4890    13.0810    -6.3260 hc         1 WGR       0.036200
     73 H14         20.4230    14.4750    -6.5060 hc         1 WGR       0.036200
     74 H15         18.4950    12.9360    -6.9910 hc         1 WGR       0.040700
     75 H16         19.5620    11.5440    -6.8070 hc         1 WGR       0.040700
     76 H17         19.9970    12.1940    -4.4180 hc         1 WGR       0.036700
     77 H18         18.9280    13.5850    -4.6030 hc         1 WGR       0.036700
     78 H19         17.0120    12.0390    -5.1020 hc         1 WGR       0.070200
     79 H20         18.0790    10.6540    -4.9070 hc         1 WGR       0.070200
     80 H21         18.3300    12.2460    -2.4790 ha         1 WGR       0.161000
     81 H22         16.5050    11.1690    -1.3480 ha         1 WGR       0.169000
     82 H23         15.1110    16.6480   -14.0460 hc         1 WGR       0.035700
     83 H24         15.8360    15.0830   -13.6970 hc         1 WGR       0.035700
     84 H25         12.4210     9.5430    -1.8680 h1         1 WGR       0.050700
     85 H26         12.8810     9.6140    -3.5790 h1         1 WGR       0.050700
     86 H27         12.5180     7.3020    -2.9400 hc         1 WGR       0.060200
     87 H28         14.2220     7.5160    -3.3180 hc         1 WGR       0.060200
     88 H29         14.6890     7.7340    -0.8210 hc         1 WGR       0.039200
     89 H30         13.0040     7.3670    -0.4930 hc         1 WGR       0.039200
     90 H31         14.9240     5.4690    -1.9760 hc         1 WGR       0.059700
     91 H32         14.6940     5.4790    -0.2400 hc         1 WGR       0.059700
     92 H33         12.2150     4.9850    -0.6100 h1         1 WGR       0.099700
     93 H34         13.4990    -0.6870     0.7210 hc         1 WGR       0.056700
     94 H35         12.7380     0.5470     1.7380 hc         1 WGR       0.056700
     95 H36         12.2260     0.3470     0.0530 hc         1 WGR       0.056700
     96 H37         15.4460     2.0870     1.9590 h1         1 WGR       0.079200
     97 H38         15.6390     0.3570     1.5580 h1         1 WGR       0.079200
     98 H39         17.6810    16.2370   -12.4220 hc         1 WGR       0.039200
     99 H40         16.9970    17.8020   -12.8670 hc         1 WGR       0.039200
    100 H41         18.6160     1.8710    -1.1480 ha         1 WGR       0.126000
    101 H42         20.1630     1.5710    -3.0530 ha         1 WGR       0.121000
    102 H43         19.3730     0.5170    -5.1690 ha         1 WGR       0.116000
    103 H44         17.0060    -0.2370    -5.3630 ha         1 WGR       0.134000
    104 H45         10.3270     4.0250    -4.3140 h1         1 WGR       0.085700
    105 H46         11.6710     5.9640    -5.2050 hc         1 WGR       0.049700
    106 H47          9.9880     6.0700    -5.7460 hc         1 WGR       0.049700
    107 H48         10.5550     7.1070    -4.4210 hc         1 WGR       0.049700
    108 H49          8.1060     5.0750    -4.2080 hc         1 WGR       0.071200
    109 H50          8.6790     6.1870    -2.9160 hc         1 WGR       0.071200
    110 H51         17.2800    17.2100   -15.3050 hc         1 WGR       0.035700
    111 H52         18.0450    15.7000   -14.8440 hc         1 WGR       0.035700
    112 H53          7.4320     2.9920    -0.0440 h1         1 WGR       0.079700
    113 H54          9.9920     2.5570    -0.4620 hc         1 WGR       0.068700
    114 H55         10.2810     3.5570     0.9500 hc         1 WGR       0.068700
    115 H56          8.6630     0.9470     0.8340 hc         1 WGR       0.044700
    116 H57         10.2860     1.1290     1.4730 hc         1 WGR       0.044700
    117 H58          9.4350     2.5740     3.3290 hc         1 WGR       0.050200
    118 H59          8.7290     0.9660     3.3100 hc         1 WGR       0.050200
    119 H60          6.8970     2.3600     3.7750 h1         1 WGR       0.048700
    120 H61          6.6960     1.9840     2.0550 h1         1 WGR       0.048700
    121 H62         19.0780    18.5360   -14.2780 hc         1 WGR       0.035700
    122 H63         19.7140    17.4250   -15.4770 hc         1 WGR       0.035700
    123 H64         19.8710    17.0860   -12.4340 hc         1 WGR       0.037200
    124 H65         21.1800    17.5620   -13.4990 hc         1 WGR       0.037200
    125 H66         21.0360    15.3270   -14.6700 hc         1 WGR       0.038700
    126 H67         19.7990    14.8170   -13.5290 hc         1 WGR       0.038700
    127 H68         22.0780    13.9520   -12.9830 hc         1 WGR       0.036200
    128 H69         22.6700    15.5960   -12.7810 hc         1 WGR       0.036200
    129 H70         21.1190    15.9350   -10.8450 hc         1 WGR       0.038700
    130 H71         20.4310    14.3320   -11.1060 hc         1 WGR       0.038700
    131 H72         13.7090     2.6690    -1.6870 hn         1 WGR       0.343500
    132 H73          8.6470     5.5340    -0.8590 hn         1 WGR       0.339500
    133 H74          6.9880     4.5670     3.2380 hn         1 WGR       0.317500
    134 H75         14.7290     0.1970    -2.6570 ho         1 WGR       0.523000
    135 O7           7.8440     5.7970     1.3550 o          1 WGR      -0.584000
@<TRIPOS>BOND
     1     1    14 1   
     2     1    16 1   
     3     1    60 1   
     4     2     4 1   
     5     2    61 1   
     6     2    62 1   
     7     2    63 1   
     8     3    14 2   
     9     4    15 1   
    10     4    64 1   
    11     4    65 1   
    12     5     6 1   
    13     5    49 1   
    14     5    66 1   
    15     5    67 1   
    16     6     7 1   
    17     6    68 1   
    18     6    69 1   
    19     7     8 1   
    20     7    70 1   
    21     7    71 1   
    22     8     9 1   
    23     8    72 1   
    24     8    73 1   
    25     9    10 1   
    26     9    74 1   
    27     9    75 1   
    28    10    11 1   
    29    10    76 1   
    30    10    77 1   
    31    11    12 1   
    32    11    78 1   
    33    11    79 1   
    34    12    13 2   
    35    12    80 1   
    36    13    14 1   
    37    13    81 1   
    38    15    26 1   
    39    15    82 1   
    40    15    83 1   
    41    16    17 1   
    42    16    84 1   
    43    16    85 1   
    44    17    18 1   
    45    17    86 1   
    46    17    87 1   
    47    18    19 1   
    48    18    88 1   
    49    18    89 1   
    50    19    20 1   
    51    19    90 1   
    52    19    91 1   
    53    20    33 1   
    54    20    50 1   
    55    20    92 1   
    56    21    22 1   
    57    21    50 1   
    58    21    54 2   
    59    22    23 1   
    60    22    24 1   
    61    22    51 1   
    62    23    93 1   
    63    23    94 1   
    64    23    95 1   
    65    24    55 1   
    66    24    96 1   
    67    24    97 1   
    68    25    27 1   
    69    25    51 2   
    70    25    55 1   
    71    26    37 1   
    72    26    98 1   
    73    26    99 1   
    74    27    28 ar  
    75    27    32 ar  
    76    28    29 ar  
    77    28   100 1   
    78    29    30 ar  
    79    29   101 1   
    80    30    31 ar  
    81    30   102 1   
    82    31    32 ar  
    83    31   103 1   
    84    32    56 1   
    85    33    57 2   
    86    33    58 1   
    87    34    35 1   
    88    34    36 1   
    89    34    58 1   
    90    34   104 1   
    91    35   105 1   
    92    35   106 1   
    93    35   107 1   
    94    36    38 1   
    95    36   108 1   
    96    36   109 1   
    97    37    45 1   
    98    37   110 1   
    99    37   111 1   
   100    38    52 1   
   101    38    59 2   
   102    39    40 1   
   103    39    44 1   
   104    39    52 1   
   105    39   112 1   
   106    40    41 1   
   107    40   113 1   
   108    40   114 1   
   109    41    42 1   
   110    41   115 1   
   111    41   116 1   
   112    42    43 1   
   113    42   117 1   
   114    42   118 1   
   115    43    53 1   
   116    43   119 1   
   117    43   120 1   
   118    44    53 1   
   119    44   135 2   
   120    45    46 1   
   121    45   121 1   
   122    45   122 1   
   123    46    47 1   
   124    46   123 1   
   125    46   124 1   
   126    47    48 1   
   127    47   125 1   
   128    47   126 1   
   129    48    49 1   
   130    48   127 1   
   131    48   128 1   
   132    49   129 1   
   133    49   130 1   
   134    50   131 1   
   135    52   132 1   
   136    53   133 1   
   137    56   134 1   
@<TRIPOS>SUBSTRUCTURE
     1 WGR         1 TEMP              0 ****  ****    0 ROOT
