@<TRIPOS>MOLECULE
WGS
   30    31     1     0     0
SMALL
No Charge or Current Charge


@<TRIPOS>ATOM
      1 N1           3.9050   -16.9870    -9.7920 nu         1 WGS      -0.938100
      2 C4           3.8040   -16.3310    -8.5750 ca         1 WGS       0.614900
      3 C5           4.5340   -16.4750   -11.0260 c3         1 WGS       0.233800
      4 C6           3.5840   -15.5460   -11.8470 c6         1 WGS      -0.080700
      5 C7           3.2670   -14.1930   -11.1360 c6         1 WGS      -0.106900
      6 C8           2.4970   -13.2020   -12.0530 c6         1 WGS       0.157100
      7 C10          4.1590   -15.2680   -13.2670 c6         1 WGS      -0.106900
      8 N            4.8200   -15.4940    -8.3070 nb         1 WGS      -0.751000
      9 C            2.7130   -16.5480    -7.6960 ca         1 WGS       0.030000
     10 O            2.1490   -13.8220   -13.3090 os         1 WGS      -0.454000
     11 C1           2.6770   -15.8490    -6.4800 ca         1 WGS      -0.066000
     12 C2           3.7360   -14.9680    -6.2010 ca         1 WGS      -0.210000
     13 C3           4.7800   -14.8230    -7.1340 ca         1 WGS       0.380900
     14 C9           3.2940   -14.2570   -14.0740 c6         1 WGS       0.157100
     15 F            1.7110   -17.4080    -8.0100 f          1 WGS      -0.185000
     16 H3           3.1580   -17.6660    -9.9250 hn         1 WGS       0.501000
     17 H5           5.4750   -15.9480   -10.8110 h1         1 WGS       0.059700
     18 H4           4.7890   -17.3300   -11.6680 h1         1 WGS       0.059700
     19 H6           2.6430   -16.1010   -11.9710 hc         1 WGS       0.053700
     20 H7           2.6730   -14.3750   -10.2310 hc         1 WGS       0.050950
     21 H8           4.1990   -13.7180   -10.8000 hc         1 WGS       0.050950
     22 H9           1.5760   -12.8670   -11.5540 h1         1 WGS       0.042700
     23 H10          3.1150   -12.3130   -12.2510 h1         1 WGS       0.042700
     24 H13          4.2420   -16.2080   -13.8290 hc         1 WGS       0.050950
     25 H14          5.1810   -14.8720   -13.1840 hc         1 WGS       0.050950
     26 H            1.8550   -15.9860    -5.7800 ha         1 WGS       0.132000
     27 H1           3.7570   -14.4020    -5.2740 ha         1 WGS       0.128000
     28 H2           5.6100   -14.1470    -6.9340 h4         1 WGS       0.019100
     29 H11          2.9390   -14.7270   -15.0030 h1         1 WGS       0.042700
     30 H12          3.8980   -13.3800   -14.3510 h1         1 WGS       0.042700
@<TRIPOS>BOND
     1     1     2 1   
     2     1     3 1   
     3     1    16 1   
     4     2     8 ar  
     5     2     9 ar  
     6     3     4 1   
     7     3    17 1   
     8     3    18 1   
     9     4     5 1   
    10     4     7 1   
    11     4    19 1   
    12     5     6 1   
    13     5    20 1   
    14     5    21 1   
    15     6    10 1   
    16     6    22 1   
    17     6    23 1   
    18     7    14 1   
    19     7    24 1   
    20     7    25 1   
    21     8    13 ar  
    22     9    11 ar  
    23     9    15 1   
    24    10    14 1   
    25    11    12 ar  
    26    11    26 1   
    27    12    13 ar  
    28    12    27 1   
    29    13    28 1   
    30    14    29 1   
    31    14    30 1   
@<TRIPOS>SUBSTRUCTURE
     1 WGS         1 TEMP              0 ****  ****    0 ROOT
