@<TRIPOS>MOLECULE
WGS
   30    31     1     0     0
SMALL
bcc


@<TRIPOS>ATOM
      1 N1           3.5290   -16.7450    -9.7930 nu         1 WGS      -0.882900
      2 C4           3.6810   -16.2120    -8.5600 ca         1 WGS       0.680200
      3 C5           4.2570   -16.3360   -10.9700 c3         1 WGS       0.233800
      4 C6           3.4340   -15.4960   -11.9420 c6         1 WGS      -0.080700
      5 C7           2.8660   -14.2240   -11.2910 c6         1 WGS      -0.106900
      6 C8           2.7030   -13.1130   -12.3310 c6         1 WGS       0.133900
      7 C10          4.2730   -15.1110   -13.1560 c6         1 WGS      -0.106900
      8 N            4.5880   -15.2680    -8.3450 nb         1 WGS      -0.751000
      9 C            2.8880   -16.6680    -7.4840 ca         1 WGS      -0.070400
     10 O            2.3550   -13.6430   -13.5920 os         1 WGS      -0.407600
     11 C1           3.0320   -16.1530    -6.2300 ca         1 WGS      -0.084000
     12 C2           3.9940   -15.1580    -6.0290 ca         1 WGS      -0.293300
     13 C3           4.7360   -14.7630    -7.1210 ca         1 WGS       0.446200
     14 C9           3.4160   -14.3700   -14.1840 c6         1 WGS       0.133900
     15 F            1.9760   -17.6300    -7.7320 f          1 WGS      -0.149900
     16 H3           2.8130   -17.4400    -9.9180 hn         1 WGS       0.445800
     17 H5           5.1370   -15.7780   -10.6520 h1         1 WGS       0.059700
     18 H4           4.6150   -17.2330   -11.4840 h1         1 WGS       0.059700
     19 H6           2.5970   -16.1110   -12.2930 hc         1 WGS       0.053700
     20 H7           1.9080   -14.4480   -10.8170 hc         1 WGS       0.050950
     21 H8           3.5300   -13.8690   -10.4990 hc         1 WGS       0.050950
     22 H9           1.9080   -12.4220   -12.0450 h1         1 WGS       0.042700
     23 H10          3.6250   -12.5210   -12.4020 h1         1 WGS       0.042700
     24 H13          4.7100   -15.9950   -13.6260 hc         1 WGS       0.050950
     25 H14          5.1140   -14.4900   -12.8310 hc         1 WGS       0.050950
     26 H            2.4120   -16.5130    -5.4190 ha         1 WGS       0.150000
     27 H1           4.1480   -14.7160    -5.0550 ha         1 WGS       0.146000
     28 H2           5.4940   -13.9950    -7.0180 h4         1 WGS       0.019100
     29 H11          2.9510   -15.0850   -14.8680 h1         1 WGS       0.042700
     30 H12          4.0490   -13.7050   -14.7850 h1         1 WGS       0.042700
@<TRIPOS>BOND
     1     1     2 1   
     2     1     3 1   
     3     1    16 1   
     4     2     8 ar  
     5     2     9 ar  
     6     3     4 1   
     7     3    17 1   
     8     3    18 1   
     9     4     5 1   
    10     4     7 1   
    11     4    19 1   
    12     5     6 1   
    13     5    20 1   
    14     5    21 1   
    15     6    10 1   
    16     6    22 1   
    17     6    23 1   
    18     7    14 1   
    19     7    24 1   
    20     7    25 1   
    21     8    13 ar  
    22     9    11 ar  
    23     9    15 1   
    24    10    14 1   
    25    11    12 ar  
    26    11    26 1   
    27    12    13 ar  
    28    12    27 1   
    29    13    28 1   
    30    14    29 1   
    31    14    30 1   
@<TRIPOS>SUBSTRUCTURE
     1 WGS         1 TEMP              0 ****  ****    0 ROOT
