@<TRIPOS>MOLECULE
WGT
   27    28     1     0     0
SMALL
abcg2


@<TRIPOS>ATOM
      1 C           -1.2210    -3.5750     0.9460 c3         1 WGT      -0.097100
      2 N            3.6750     0.3670    -1.0120 nv         1 WGT      -1.071000
      3 O            0.2350    -1.8430     0.2340 os         1 WGT      -0.430100
      4 S            2.3240     2.5120    -0.1920 ss         1 WGT       0.139000
      5 C1           0.0490    -3.2620     0.1910 c3         1 WGT       0.168600
      6 O1           2.1770    -2.0000    -0.8560 o          1 WGT      -0.544000
      7 S1          -2.1280    -0.0570    -0.7530 ss         1 WGT       0.229000
      8 C2           1.3020    -1.3220    -0.3480 c          1 WGT       0.645700
      9 C3           1.3290     0.1310    -0.2840 cc         1 WGT      -0.290600
     10 C4           0.2740     1.0080     0.1720 cc         1 WGT       0.061000
     11 C5           0.6710     2.2980     0.2700 cd         1 WGT      -0.254000
     12 C6           2.5050     0.8270    -0.5410 cd         1 WGT       0.290000
     13 C7          -1.1140     0.6370     0.4570 cc         1 WGT      -0.134000
     14 C8          -1.8120     0.8460     1.6100 cd         1 WGT      -0.126000
     15 C9          -3.1690     0.4310     1.5220 cd         1 WGT      -0.133000
     16 C10         -3.4800    -0.0780     0.2990 cc         1 WGT      -0.254000
     17 H           -2.0810    -3.0750     0.5010 hc         1 WGT       0.046367
     18 HA          -1.4010    -4.6490     0.9170 hc         1 WGT       0.046367
     19 HB          -1.1500    -3.2740     1.9900 hc         1 WGT       0.046367
     20 HN           4.5160     0.9040    -0.8810 hn         1 WGT       0.499500
     21 HNA          3.7870    -0.6320    -1.0840 hn         1 WGT       0.499500
     22 H1           0.9060    -3.7650     0.6450 h1         1 WGT       0.045700
     23 H1A         -0.0220    -3.5940    -0.8470 h1         1 WGT       0.045700
     24 H5           0.0750     3.1550     0.5420 h4         1 WGT       0.158000
     25 H8          -1.3630     1.2690     2.4980 ha         1 WGT       0.134000
     26 H9          -3.8770     0.5040     2.3340 ha         1 WGT       0.131000
     27 H10         -4.4280    -0.4650    -0.0400 h4         1 WGT       0.147000
@<TRIPOS>BOND
     1     1     5 1   
     2     1    17 1   
     3     1    18 1   
     4     1    19 1   
     5     2    12 1   
     6     2    20 1   
     7     2    21 1   
     8     3     5 1   
     9     3     8 1   
    10     4    11 1   
    11     4    12 1   
    12     5    22 1   
    13     5    23 1   
    14     6     8 2   
    15     7    13 1   
    16     7    16 1   
    17     8     9 1   
    18     9    10 1   
    19     9    12 2   
    20    10    11 2   
    21    10    13 1   
    22    11    24 1   
    23    13    14 2   
    24    14    15 1   
    25    14    25 1   
    26    15    16 2   
    27    15    26 1   
    28    16    27 1   
@<TRIPOS>SUBSTRUCTURE
     1 WGT         1 TEMP              0 ****  ****    0 ROOT
