@<TRIPOS>MOLECULE
WGT
   27    28     1     0     0
SMALL
No Charge or Current Charge


@<TRIPOS>ATOM
      1 C           -0.8550    -3.9920     0.9780 c3         1 WGT      -0.097100
      2 N            3.6060     0.3030    -0.9200 nv         1 WGT      -1.071000
      3 O            0.2800    -2.0320     0.1880 os         1 WGT      -0.430100
      4 S            2.4210     2.3990     0.3950 ss         1 WGT       0.139000
      5 C1           0.1860    -3.4510    -0.0150 c3         1 WGT       0.168600
      6 O1           1.9080    -1.8690    -1.3760 o          1 WGT      -0.544000
      7 S1          -2.1080    -0.5370    -0.3180 ss         1 WGT       0.229000
      8 C2           1.1450    -1.3140    -0.5920 c          1 WGT       0.645700
      9 C3           1.2690     0.1170    -0.1960 cc         1 WGT      -0.290600
     10 C4           0.2600     0.9270     0.4520 cc         1 WGT       0.061000
     11 C5           0.7480     2.1410     0.8800 cd         1 WGT      -0.254000
     12 C6           2.4590     0.7910    -0.3530 cd         1 WGT       0.290000
     13 C7          -1.1660     0.6590     0.5880 cc         1 WGT      -0.134000
     14 C8          -2.0120     1.4390     1.3520 cd         1 WGT      -0.126000
     15 C9          -3.3800     1.0630     1.2650 cd         1 WGT      -0.133000
     16 C10         -3.6090     0.0130     0.4160 cc         1 WGT      -0.254000
     17 H           -1.8360    -3.5390     0.7960 hc         1 WGT       0.046367
     18 HA          -0.9540    -5.0790     0.8690 hc         1 WGT       0.046367
     19 HB          -0.5530    -3.7750     2.0090 hc         1 WGT       0.046367
     20 HN           4.3720     0.9320    -1.1580 hn         1 WGT       0.499500
     21 HNA          3.5500    -0.5830    -1.4260 hn         1 WGT       0.499500
     22 H1           1.1530    -3.9380     0.1680 h1         1 WGT       0.045700
     23 H1A         -0.1320    -3.6800    -1.0410 h1         1 WGT       0.045700
     24 H5           0.2260     2.9540     1.3660 h4         1 WGT       0.158000
     25 H8          -1.6890     2.2570     1.9860 ha         1 WGT       0.134000
     26 H9          -4.1700     1.5650     1.8160 ha         1 WGT       0.131000
     27 H10         -4.5410    -0.4730     0.1600 h4         1 WGT       0.147000
@<TRIPOS>BOND
     1     1     5 1   
     2     1    17 1   
     3     1    18 1   
     4     1    19 1   
     5     2    12 1   
     6     2    20 1   
     7     2    21 1   
     8     3     5 1   
     9     3     8 1   
    10     4    11 1   
    11     4    12 1   
    12     5    22 1   
    13     5    23 1   
    14     6     8 2   
    15     7    13 1   
    16     7    16 1   
    17     8     9 1   
    18     9    10 1   
    19     9    12 2   
    20    10    11 2   
    21    10    13 1   
    22    11    24 1   
    23    13    14 2   
    24    14    15 1   
    25    14    25 1   
    26    15    16 2   
    27    15    26 1   
    28    16    27 1   
@<TRIPOS>SUBSTRUCTURE
     1 WGT         1 TEMP              0 ****  ****    0 ROOT
