@<TRIPOS>MOLECULE
WGV
   32    33     1     0     0
SMALL
bcc


@<TRIPOS>ATOM
      1 C4          -8.5030    -8.6730   -13.4940 ca         1 WGV      -0.108500
      2 C5          -9.4380    -8.7450   -12.4730 ca         1 WGV      -0.130000
      3 C6         -10.7850    -8.9170   -12.7680 ca         1 WGV      -0.123000
      4 C7         -11.1950    -9.0160   -14.0920 ca         1 WGV      -0.130000
      5 C8         -10.2670    -8.9430   -15.1180 ca         1 WGV      -0.108500
      6 C10         -8.3910    -9.1030   -20.8830 c6         1 WGV      -0.074900
      7 C13         -5.6180    -9.1680   -20.1030 c6         1 WGV       0.164800
      8 N           -6.6860    -9.1230   -19.1160 n3         1 WGV      -0.709600
      9 C           -6.1990    -8.5300   -17.8840 c3         1 WGV       0.253900
     10 C1          -7.1620    -8.6340   -16.7910 c1         1 WGV      -0.116100
     11 C11         -7.3100    -9.1910   -21.9510 c6         1 WGV      -0.075400
     12 C12         -6.0710    -9.8640   -21.3770 c6         1 WGV      -0.074900
     13 C3          -8.9090    -8.7720   -14.8280 ca         1 WGV       0.033000
     14 C9          -7.8560    -8.4280   -19.6290 c6         1 WGV       0.164800
     15 H2          -7.4540    -8.5390   -13.2630 ha         1 WGV       0.136500
     16 H3          -9.1140    -8.6660   -11.4440 ha         1 WGV       0.132000
     17 H4         -11.5120    -8.9740   -11.9690 ha         1 WGV       0.131000
     18 H5         -12.2430    -9.1480   -14.3260 ha         1 WGV       0.132000
     19 H6         -10.5870    -9.0200   -16.1480 ha         1 WGV       0.136500
     20 H9          -9.2560    -8.5440   -21.2450 hc         1 WGV       0.046700
     21 H15         -4.7670    -9.7020   -19.6720 h1         1 WGV       0.031700
     22 H16         -5.2610    -8.1530   -20.3540 h1         1 WGV       0.031700
     23 H1          -5.9260    -7.4680   -18.0110 h1         1 WGV       0.047700
     24 H           -5.2810    -9.0450   -17.5870 h1         1 WGV       0.047700
     25 H11         -7.6720    -9.7330   -22.8280 hc         1 WGV       0.038700
     26 H12         -7.0510    -8.1820   -22.2900 hc         1 WGV       0.038700
     27 H14         -6.2900   -10.9130   -21.1550 hc         1 WGV       0.046700
     28 H13         -5.2520    -9.8550   -22.0990 hc         1 WGV       0.046700
     29 H8          -8.6280    -8.4220   -18.8570 h1         1 WGV       0.031700
     30 H7          -7.6230    -7.3720   -19.8540 h1         1 WGV       0.031700
     31 C2          -7.9550    -8.6940   -15.8860 cg         1 WGV      -0.118000
     32 H10         -8.7440   -10.1070   -20.6280 hc         1 WGV       0.046700
@<TRIPOS>BOND
     1     1     2 ar  
     2     1    13 ar  
     3     1    15 1   
     4     2     3 ar  
     5     2    16 1   
     6     3     4 ar  
     7     3    17 1   
     8     4     5 ar  
     9     4    18 1   
    10     5    13 ar  
    11     5    19 1   
    12     6    11 1   
    13     6    14 1   
    14     6    20 1   
    15     6    32 1   
    16     7     8 1   
    17     7    12 1   
    18     7    21 1   
    19     7    22 1   
    20     8     9 1   
    21     8    14 1   
    22     9    10 1   
    23     9    23 1   
    24     9    24 1   
    25    10    31 3   
    26    11    12 1   
    27    11    25 1   
    28    11    26 1   
    29    12    27 1   
    30    12    28 1   
    31    13    31 1   
    32    14    29 1   
    33    14    30 1   
@<TRIPOS>SUBSTRUCTURE
     1 WGV         1 TEMP              0 ****  ****    0 ROOT
