@<TRIPOS>MOLECULE
WGV
   32    33     1     0     0
SMALL
No Charge or Current Charge


@<TRIPOS>ATOM
      1 C4          -8.5150    -8.6170   -13.4320 ca         1 WGV      -0.090500
      2 C5          -9.4690    -8.7060   -12.4030 ca         1 WGV      -0.112000
      3 C6         -10.8170    -8.9540   -12.7130 ca         1 WGV      -0.105000
      4 C7         -11.2120    -9.1130   -14.0530 ca         1 WGV      -0.112000
      5 C8         -10.2580    -9.0250   -15.0830 ca         1 WGV      -0.090500
      6 C10         -8.4040    -9.0250   -20.9460 c6         1 WGV      -0.074900
      7 C13         -5.5880    -9.2120   -20.1270 c6         1 WGV       0.164800
      8 N           -6.6740    -9.0740   -19.1160 n3         1 WGV      -0.709600
      9 C           -6.1720    -8.4970   -17.8420 c3         1 WGV       0.253900
     10 C1          -7.1210    -8.6080   -16.7240 c1         1 WGV      -0.116100
     11 C11         -7.3030    -9.2020   -22.0160 c6         1 WGV      -0.075400
     12 C12         -6.0840    -9.9310   -21.4070 c6         1 WGV      -0.074900
     13 C3          -8.9070    -8.7760   -14.7750 ca         1 WGV       0.033000
     14 C9          -7.8440    -8.3330   -19.6780 c6         1 WGV       0.164800
     15 H2          -7.4720    -8.4240   -13.1860 ha         1 WGV       0.118500
     16 H3          -9.1630    -8.5820   -11.3660 ha         1 WGV       0.114000
     17 H4         -11.5550    -9.0230   -11.9170 ha         1 WGV       0.113000
     18 H5         -12.2550    -9.3060   -14.2940 ha         1 WGV       0.114000
     19 H6         -10.5690    -9.1490   -16.1180 ha         1 WGV       0.118500
     20 H9          -9.2350    -8.4350   -21.3550 hc         1 WGV       0.046700
     21 H15         -4.7490    -9.7860   -19.7080 h1         1 WGV       0.031700
     22 H16         -5.1970    -8.2210   -20.4020 h1         1 WGV       0.031700
     23 H1          -5.9140    -7.4380   -17.9780 h1         1 WGV       0.047700
     24 H           -5.2510    -9.0140   -17.5370 h1         1 WGV       0.047700
     25 H11         -7.6940    -9.7670   -22.8730 hc         1 WGV       0.038700
     26 H12         -6.9950    -8.2180   -22.3980 hc         1 WGV       0.038700
     27 H14         -6.3540   -10.9670   -21.1630 hc         1 WGV       0.046700
     28 H13         -5.2700    -9.9830   -22.1430 hc         1 WGV       0.046700
     29 H8          -8.6560    -8.2660   -18.9400 h1         1 WGV       0.031700
     30 H7          -7.5540    -7.3030   -19.9320 h1         1 WGV       0.031700
     31 C2          -7.9360    -8.6850   -15.8250 cg         1 WGV      -0.118000
     32 H10         -8.8190   -10.0050   -20.6740 hc         1 WGV       0.046700
@<TRIPOS>BOND
     1     1     2 ar  
     2     1    13 ar  
     3     1    15 1   
     4     2     3 ar  
     5     2    16 1   
     6     3     4 ar  
     7     3    17 1   
     8     4     5 ar  
     9     4    18 1   
    10     5    13 ar  
    11     5    19 1   
    12     6    11 1   
    13     6    14 1   
    14     6    20 1   
    15     6    32 1   
    16     7     8 1   
    17     7    12 1   
    18     7    21 1   
    19     7    22 1   
    20     8     9 1   
    21     8    14 1   
    22     9    10 1   
    23     9    23 1   
    24     9    24 1   
    25    10    31 3   
    26    11    12 1   
    27    11    25 1   
    28    11    26 1   
    29    12    27 1   
    30    12    28 1   
    31    13    31 1   
    32    14    29 1   
    33    14    30 1   
@<TRIPOS>SUBSTRUCTURE
     1 WGV         1 TEMP              0 ****  ****    0 ROOT
