@<TRIPOS>MOLECULE
WGW
   29    30     1     0     0
SMALL
No Charge or Current Charge


@<TRIPOS>ATOM
      1 N1           7.1550     7.7930    14.6770 ns         1 WGW      -0.491500
      2 C4           7.6630     6.6380    17.0110 c2         1 WGW       0.515300
      3 C6           7.6830     6.5370    14.6550 c          1 WGW       0.704400
      4 C10          6.4930     5.9900    19.0880 c          1 WGW       0.611100
      5 N12          6.4460     6.8840    20.1490 ns         1 WGW      -0.142000
      6 C13          5.4230     7.2120    21.0840 ca         1 WGW      -0.012000
      7 C15          4.6590     8.6880    22.8840 ca         1 WGW      -0.065000
      8 C17          3.2480     6.8530    22.1480 ca         1 WGW      -0.068000
      9 C2           6.8280     8.5230    15.7670 c          1 WGW       0.585000
     10 C3           7.5930     8.1340    16.9990 c6         1 WGW      -0.277700
     11 N5           7.7670     5.9440    15.9190 ne         1 WGW      -0.610100
     12 O7           7.9810     5.9880    13.6120 o          1 WGW      -0.472000
     13 O8           5.9250     9.3410    15.7610 o          1 WGW      -0.508000
     14 C9           7.8160     5.9620    18.3430 c3         1 WGW      -0.219700
     15 O11          5.5590     5.2770    18.7460 o          1 WGW      -0.567100
     16 C14          5.6320     8.3180    21.9400 ca         1 WGW       0.071000
     17 C16          3.4680     7.9560    22.9860 ca         1 WGW       0.102000
     18 C18          4.2190     6.4790    21.2010 ca         1 WGW      -0.121000
     19 Cl19         2.2500     8.4190    24.1690 cl         1 WGW      -0.192000
     20 Cl20         7.1180     9.2640    21.8370 cl         1 WGW      -0.206000
     21 H1           6.8400     8.1470    13.7870 hn         1 WGW       0.344500
     22 H2           7.3010     7.4080    20.2880 hn         1 WGW       0.166000
     23 H3           4.8300     9.5410    23.5340 ha         1 WGW       0.147000
     24 H4           2.3240     6.2850    22.2340 ha         1 WGW       0.140000
     25 H5           8.6260     8.4810    16.8780 hc         1 WGW       0.109700
     26 H6           7.1400     8.5790    17.8930 hc         1 WGW       0.109700
     27 H7           8.0990     4.9140    18.1920 hc         1 WGW       0.094200
     28 H8           8.5980     6.4680    18.9200 hc         1 WGW       0.094200
     29 H9           4.0180     5.6130    20.5770 ha         1 WGW       0.159000
@<TRIPOS>BOND
     1     1     3 1   
     2     1     9 1   
     3     1    21 1   
     4     2    10 1   
     5     2    11 2   
     6     2    14 1   
     7     3    11 1   
     8     3    12 2   
     9     4     5 1   
    10     4    14 1   
    11     4    15 2   
    12     5     6 1   
    13     5    22 1   
    14     6    16 ar  
    15     6    18 ar  
    16     7    16 ar  
    17     7    17 ar  
    18     7    23 1   
    19     8    17 ar  
    20     8    18 ar  
    21     8    24 1   
    22     9    10 1   
    23     9    13 2   
    24    10    25 1   
    25    10    26 1   
    26    14    27 1   
    27    14    28 1   
    28    16    20 1   
    29    17    19 1   
    30    18    29 1   
@<TRIPOS>SUBSTRUCTURE
     1 WGW         1 TEMP              0 ****  ****    0 ROOT
