@<TRIPOS>MOLECULE
WGW
   29    30     1     0     0
SMALL
abcg2


@<TRIPOS>ATOM
      1 N1           7.2360     7.0500    14.1790 ns         1 WGW      -0.491500
      2 C4           7.5800     6.9770    16.8720 c2         1 WGW       0.515300
      3 C6           7.7080     5.9090    14.8110 c          1 WGW       0.704400
      4 C10          6.4100     6.9650    19.0820 c          1 WGW       0.611100
      5 N12          6.5090     7.3130    20.3940 ns         1 WGW      -0.142000
      6 C13          5.5130     7.3320    21.3750 ca         1 WGW      -0.012000
      7 C15          4.9410     7.6780    23.7200 ca         1 WGW      -0.065000
      8 C17          3.2200     7.0980    22.1320 ca         1 WGW      -0.068000
      9 C2           6.9070     8.2360    14.7850 c          1 WGW       0.585000
     10 C3           7.1040     8.2610    16.2730 c6         1 WGW      -0.277700
     11 N5           7.8600     5.9190    16.2080 ne         1 WGW      -0.610100
     12 O7           7.9780     4.9180    14.1640 o          1 WGW      -0.472000
     13 O8           6.4940     9.1870    14.1500 o          1 WGW      -0.508000
     14 C9           7.7560     6.9520    18.3600 c3         1 WGW      -0.219700
     15 O11          5.3720     6.6550    18.5160 o          1 WGW      -0.567100
     16 C14          5.8730     7.6400    22.6970 ca         1 WGW       0.071000
     17 C16          3.6140     7.4030    23.4260 ca         1 WGW       0.102000
     18 C18          4.1640     7.0660    21.1160 ca         1 WGW      -0.121000
     19 CL19         2.4300     7.4440    24.7090 cl         1 WGW      -0.192000
     20 CL20         7.5410     7.9890    23.0890 cl         1 WGW      -0.206000
     21 H1           7.1290     6.9960    13.1720 hn         1 WGW       0.344500
     22 H2           7.4350     7.5500    20.7220 hn         1 WGW       0.166000
     23 H3           5.2500     7.9170    24.7270 ha         1 WGW       0.147000
     24 H4           2.1840     6.8870    21.9100 ha         1 WGW       0.140000
     25 H5           7.8230     9.0520    16.5120 hc         1 WGW       0.109700
     26 H6           6.1660     8.5630    16.7470 hc         1 WGW       0.109700
     27 H7           8.2860     6.0430    18.6460 hc         1 WGW       0.094200
     28 H8           8.3570     7.8100    18.6710 hc         1 WGW       0.094200
     29 H9           3.8610     6.8280    20.1110 ha         1 WGW       0.159000
@<TRIPOS>BOND
     1     1     3 1   
     2     1     9 1   
     3     1    21 1   
     4     2    10 1   
     5     2    11 2   
     6     2    14 1   
     7     3    11 1   
     8     3    12 2   
     9     4     5 1   
    10     4    14 1   
    11     4    15 2   
    12     5     6 1   
    13     5    22 1   
    14     6    16 ar  
    15     6    18 ar  
    16     7    16 ar  
    17     7    17 ar  
    18     7    23 1   
    19     8    17 ar  
    20     8    18 ar  
    21     8    24 1   
    22     9    10 1   
    23     9    13 2   
    24    10    25 1   
    25    10    26 1   
    26    14    27 1   
    27    14    28 1   
    28    16    20 1   
    29    17    19 1   
    30    18    29 1   
@<TRIPOS>SUBSTRUCTURE
     1 WGW         1 TEMP              0 ****  ****    0 ROOT
