@<TRIPOS>MOLECULE
WGX
   64    68     1     0     0
SMALL
No Charge or Current Charge


@<TRIPOS>ATOM
      1 CAA         -2.3700    -2.8200     3.1110 c3         1 WGX       0.069300
      2 CAB         -3.7580    -1.2270    -2.3200 c3         1 WGX       0.074300
      3 CAG          3.9020     0.9150    -0.9180 ca         1 WGX      -0.137000
      4 CAH          3.3810     1.3250     0.3200 ca         1 WGX      -0.013000
      5 CAI          2.0340    -0.7030     0.4100 ca         1 WGX      -0.013000
      6 CAJ         -1.3290    -0.3520     1.9410 ca         1 WGX      -0.125000
      7 CAK         -2.0020     0.4160    -0.6620 ca         1 WGX      -0.137000
      8 CAL          0.4840     4.7480    -1.8930 c6         1 WGX      -0.076400
      9 CAM          3.8050    -2.1610    -3.2550 c6         1 WGX      -0.073400
     10 CAN          2.3470    -2.5610    -2.9530 c6         1 WGX      -0.073400
     11 CAO         -0.4660     4.8520    -0.6760 c6         1 WGX      -0.077400
     12 CAP          1.3040     3.4390    -1.8170 c6         1 WGX      -0.077400
     13 CAQ          4.0510    -0.6820    -2.8800 c6         1 WGX      -0.040100
     14 CAR          2.0520    -2.4300    -1.4420 c6         1 WGX      -0.033100
     15 CAS         -1.3560     3.5910    -0.5510 c6         1 WGX       0.178800
     16 CAT          0.3780     2.2080    -1.6700 c6         1 WGX       0.178800
     17 CAV          3.4890    -0.2950    -1.5060 ca         1 WGX      -0.017300
     18 CAW          2.5410    -1.1070    -0.8390 ca         1 WGX      -0.094300
     19 CAX         -0.7450     0.7910     1.3800 ca         1 WGX       0.256000
     20 CAY          2.4420     0.5160     0.9870 ca         1 WGX      -0.307500
     21 CAZ         -1.0880     1.1850     0.0700 ca         1 WGX       0.209000
     22 CBA         -4.0060    -2.9010     1.2290 c          1 WGX       0.488000
     23 CBB         -4.3840    -2.4680    -0.2490 c          1 WGX       0.487000
     24 CBC         -2.1990    -1.1740     1.1870 ca         1 WGX       0.048600
     25 CBD         -2.5390    -0.7850    -0.1400 ca         1 WGX       0.032600
     26 NAU          0.1680     1.5650     2.0900 nu         1 WGX      -0.822100
     27 NBE         -0.5250     2.3590    -0.4970 nh         1 WGX      -0.791400
     28 NBF         -2.8890    -2.2710     1.8280 n          1 WGX      -0.290000
     29 NBG         -3.5780    -1.4810    -0.8650 n          1 WGX      -0.291000
     30 OAD         -5.3280    -2.9940    -0.8380 o          1 WGX      -0.485000
     31 OAE          1.4620    -0.0920     3.4060 o          1 WGX      -0.531000
     32 OAF          2.3470     2.2850     3.0000 o          1 WGX      -0.531000
     33 SBH          1.7010     1.0580     2.5300 sy         1 WGX       1.129600
     34 H1          -2.7110    -3.8500     3.2750 h1         1 WGX       0.062367
     35 H2          -1.2730    -2.8360     3.0960 h1         1 WGX       0.062367
     36 H3          -2.7130    -2.1960     3.9450 h1         1 WGX       0.062367
     37 H4          -4.2650    -2.0650    -2.8150 h1         1 WGX       0.055700
     38 H5          -4.3520    -0.3160    -2.4650 h1         1 WGX       0.055700
     39 H6          -2.7800    -1.1040    -2.8020 h1         1 WGX       0.055700
     40 H8           3.7020     2.2740     0.7460 ha         1 WGX       0.139000
     41 H9           1.3050    -1.3310     0.9190 ha         1 WGX       0.131000
     42 H10         -1.0950    -0.5810     2.9740 ha         1 WGX       0.161000
     43 H11         -2.2840     0.7760    -1.6450 ha         1 WGX       0.127000
     44 H12         -0.1010     4.7650    -2.8240 hc         1 WGX       0.042200
     45 H13          1.1570     5.6150    -1.9250 hc         1 WGX       0.042200
     46 H14          4.4900    -2.8070    -2.6870 hc         1 WGX       0.047700
     47 H15          4.0310    -2.3200    -4.3180 hc         1 WGX       0.047700
     48 H16          1.6610    -1.9180    -3.5230 hc         1 WGX       0.044700
     49 H17          2.1590    -3.5920    -3.2830 hc         1 WGX       0.044700
     50 H18          0.1230     4.9760     0.2430 hc         1 WGX       0.049200
     51 H19         -1.0980     5.7450    -0.7670 hc         1 WGX       0.049200
     52 H20          1.9280     3.3290    -2.7140 hc         1 WGX       0.049200
     53 H21          1.9900     3.4850    -0.9610 hc         1 WGX       0.049200
     54 H22          5.1290    -0.4720    -2.9170 hc         1 WGX       0.053200
     55 H23          3.5890    -0.0370    -3.6400 hc         1 WGX       0.053200
     56 H24          0.9720    -2.5430    -1.2740 hc         1 WGX       0.053700
     57 H25          2.5320    -3.2600    -0.9070 hc         1 WGX       0.053700
     58 H26         -1.9670     3.6760     0.3600 h1         1 WGX       0.039200
     59 H27         -2.0430     3.5430    -1.4080 h1         1 WGX       0.039200
     60 H28         -0.2160     2.0880    -2.5880 h1         1 WGX       0.039200
     61 H29          0.9970     1.3060    -1.5590 h1         1 WGX       0.039200
     62 H30          0.3850     2.3840     1.5320 hn         1 WGX       0.503000
     63 OAC         -4.6500    -3.7710     1.8150 o          1 WGX      -0.483000
     64 H7           4.6200     1.5510    -1.4310 ha         1 WGX       0.116000
@<TRIPOS>BOND
     1     1    28 1   
     2     1    34 1   
     3     1    35 1   
     4     1    36 1   
     5     2    29 1   
     6     2    37 1   
     7     2    38 1   
     8     2    39 1   
     9     3     4 ar  
    10     3    17 ar  
    11     3    64 1   
    12     4    20 ar  
    13     4    40 1   
    14     5    18 ar  
    15     5    20 ar  
    16     5    41 1   
    17     6    19 ar  
    18     6    24 ar  
    19     6    42 1   
    20     7    21 ar  
    21     7    25 ar  
    22     7    43 1   
    23     8    11 1   
    24     8    12 1   
    25     8    44 1   
    26     8    45 1   
    27     9    10 1   
    28     9    13 1   
    29     9    46 1   
    30     9    47 1   
    31    10    14 1   
    32    10    48 1   
    33    10    49 1   
    34    11    15 1   
    35    11    50 1   
    36    11    51 1   
    37    12    16 1   
    38    12    52 1   
    39    12    53 1   
    40    13    17 1   
    41    13    54 1   
    42    13    55 1   
    43    14    18 1   
    44    14    56 1   
    45    14    57 1   
    46    15    27 1   
    47    15    58 1   
    48    15    59 1   
    49    16    27 1   
    50    16    60 1   
    51    16    61 1   
    52    17    18 ar  
    53    19    21 ar  
    54    19    26 1   
    55    20    33 1   
    56    21    27 1   
    57    22    23 1   
    58    22    28 1   
    59    22    63 2   
    60    23    29 1   
    61    23    30 2   
    62    24    25 ar  
    63    24    28 1   
    64    25    29 1   
    65    26    33 1   
    66    26    62 1   
    67    31    33 2   
    68    32    33 2   
@<TRIPOS>SUBSTRUCTURE
     1 WGX         1 TEMP              0 ****  ****    0 ROOT
