@<TRIPOS>MOLECULE
WGX
   64    68     1     0     0
SMALL
abcg2


@<TRIPOS>ATOM
      1 CAA         -2.4240    -2.5940     3.0900 c3         1 WGX       0.069300
      2 CAB         -3.6410    -1.0460    -2.2600 c3         1 WGX       0.074300
      3 CAG          3.8280     0.8190    -0.8450 ca         1 WGX      -0.137000
      4 CAH          3.3440     1.2120     0.3880 ca         1 WGX      -0.013000
      5 CAI          2.0000    -0.7950     0.4450 ca         1 WGX      -0.013000
      6 CAJ         -1.2990    -0.2950     1.9370 ca         1 WGX      -0.125000
      7 CAK         -1.9000     0.4680    -0.6480 ca         1 WGX      -0.137000
      8 CAL          0.3350     4.6980    -1.9870 c6         1 WGX      -0.076400
      9 CAM          3.6560    -2.1460    -3.2370 c6         1 WGX      -0.073400
     10 CAN          2.2180    -2.5290    -2.9210 c6         1 WGX      -0.073400
     11 CAO         -0.5680     4.8180    -0.7650 c6         1 WGX      -0.077400
     12 CAP          1.2300     3.4700    -1.8730 c6         1 WGX      -0.077400
     13 CAQ          3.9200    -0.7020    -2.8330 c6         1 WGX      -0.040100
     14 CAR          1.9730    -2.4580    -1.4200 c6         1 WGX      -0.033100
     15 CAS         -1.3330     3.5260    -0.5250 c6         1 WGX       0.178800
     16 CAT          0.4050     2.2220    -1.6060 c6         1 WGX       0.178800
     17 CAV          3.4000    -0.3580    -1.4620 ca         1 WGX      -0.017300
     18 CAW          2.4710    -1.1740    -0.8080 ca         1 WGX      -0.094300
     19 CAX         -0.6910     0.8230     1.3890 ca         1 WGX       0.256000
     20 CAY          2.4260     0.3880     1.0270 ca         1 WGX      -0.307500
     21 CAZ         -1.0020     1.2240     0.0890 ca         1 WGX       0.209000
     22 CBA         -3.6460    -2.9640     1.0340 c          1 WGX       0.488000
     23 CBB         -3.9700    -2.5540    -0.3950 c          1 WGX       0.487000
     24 CBC         -2.1770    -1.0660     1.1840 ca         1 WGX       0.048600
     25 CBD         -2.4790    -0.6850    -0.1300 ca         1 WGX       0.032600
     26 NAU          0.2300     1.5940     2.1310 nu         1 WGX      -0.822100
     27 NBE         -0.4010     2.4070    -0.4040 nh         1 WGX      -0.791400
     28 NBF         -2.7640    -2.2060     1.7290 n          1 WGX      -0.290000
     29 NBG         -3.3600    -1.4500    -0.8920 n          1 WGX      -0.291000
     30 OAD         -4.7520    -3.2370    -1.0200 o          1 WGX      -0.485000
     31 OAE          1.4010    -0.2860     3.3400 o          1 WGX      -0.531000
     32 OAF          2.4750     1.9780     3.1240 o          1 WGX      -0.531000
     33 SBH          1.6950     0.8970     2.5510 sy         1 WGX       1.129600
     34 H1          -2.9340    -3.5160     3.3380 h1         1 WGX       0.062367
     35 H2          -1.3500    -2.7520     3.1800 h1         1 WGX       0.062367
     36 H3          -2.7330    -1.8230     3.7940 h1         1 WGX       0.062367
     37 H4          -4.3220    -1.7570    -2.7110 h1         1 WGX       0.055700
     38 H5          -4.1030    -0.0600    -2.2800 h1         1 WGX       0.055700
     39 H6          -2.7230    -1.0230    -2.8450 h1         1 WGX       0.055700
     40 H8           3.6790     2.1370     0.8370 ha         1 WGX       0.139000
     41 H9           1.2940    -1.4380     0.9550 ha         1 WGX       0.131000
     42 H10         -1.0830    -0.5560     2.9600 ha         1 WGX       0.161000
     43 H11         -2.1350     0.7920    -1.6520 ha         1 WGX       0.127000
     44 H12         -0.2830     4.6120    -2.8880 hc         1 WGX       0.042200
     45 H13          0.9360     5.6020    -2.1060 hc         1 WGX       0.042200
     46 H14          4.3380    -2.8150    -2.7020 hc         1 WGX       0.047700
     47 H15          3.8660    -2.2710    -4.3000 hc         1 WGX       0.047700
     48 H16          1.5350    -1.8510    -3.4420 hc         1 WGX       0.044700
     49 H17          1.9960    -3.5350    -3.2800 hc         1 WGX       0.044700
     50 H18          0.0320     5.0440     0.1210 hc         1 WGX       0.049200
     51 H19         -1.2790     5.6380    -0.8880 hc         1 WGX       0.049200
     52 H20          1.8140     3.3270    -2.7850 hc         1 WGX       0.049200
     53 H21          1.9450     3.6010    -1.0540 hc         1 WGX       0.049200
     54 H22          4.9870    -0.4760    -2.8840 hc         1 WGX       0.053200
     55 H23          3.4400    -0.0320    -3.5540 hc         1 WGX       0.053200
     56 H24          0.9100    -2.5760    -1.2000 hc         1 WGX       0.053700
     57 H25          2.4770    -3.2980    -0.9310 hc         1 WGX       0.053700
     58 H26         -1.9150     3.5960     0.3960 h1         1 WGX       0.039200
     59 H27         -2.0480     3.3630    -1.3470 h1         1 WGX       0.039200
     60 H28         -0.2260     2.0100    -2.4850 h1         1 WGX       0.039200
     61 H29          1.0580     1.3610    -1.4610 h1         1 WGX       0.039200
     62 H30          0.4100     2.4660     1.6280 hn         1 WGX       0.503000
     63 OAC         -4.1870    -3.9540     1.4770 o          1 WGX      -0.483000
     64 H7           4.5520     1.4470    -1.3510 ha         1 WGX       0.116000
@<TRIPOS>BOND
     1     1    28 1   
     2     1    34 1   
     3     1    35 1   
     4     1    36 1   
     5     2    29 1   
     6     2    37 1   
     7     2    38 1   
     8     2    39 1   
     9     3     4 ar  
    10     3    17 ar  
    11     3    64 1   
    12     4    20 ar  
    13     4    40 1   
    14     5    18 ar  
    15     5    20 ar  
    16     5    41 1   
    17     6    19 ar  
    18     6    24 ar  
    19     6    42 1   
    20     7    21 ar  
    21     7    25 ar  
    22     7    43 1   
    23     8    11 1   
    24     8    12 1   
    25     8    44 1   
    26     8    45 1   
    27     9    10 1   
    28     9    13 1   
    29     9    46 1   
    30     9    47 1   
    31    10    14 1   
    32    10    48 1   
    33    10    49 1   
    34    11    15 1   
    35    11    50 1   
    36    11    51 1   
    37    12    16 1   
    38    12    52 1   
    39    12    53 1   
    40    13    17 1   
    41    13    54 1   
    42    13    55 1   
    43    14    18 1   
    44    14    56 1   
    45    14    57 1   
    46    15    27 1   
    47    15    58 1   
    48    15    59 1   
    49    16    27 1   
    50    16    60 1   
    51    16    61 1   
    52    17    18 ar  
    53    19    21 ar  
    54    19    26 1   
    55    20    33 1   
    56    21    27 1   
    57    22    23 1   
    58    22    28 1   
    59    22    63 2   
    60    23    29 1   
    61    23    30 2   
    62    24    25 ar  
    63    24    28 1   
    64    25    29 1   
    65    26    33 1   
    66    26    62 1   
    67    31    33 2   
    68    32    33 2   
@<TRIPOS>SUBSTRUCTURE
     1 WGX         1 TEMP              0 ****  ****    0 ROOT
