@<TRIPOS>MOLECULE
WGY
   27    27     1     0     0
SMALL
No Charge or Current Charge


@<TRIPOS>ATOM
      1 N1           5.4510     3.2670   -11.4140 n8         1 WGY      -1.000100
      2 C4           5.2190     0.4130   -15.0820 ca         1 WGY      -0.182000
      3 C5           5.1020     0.7570   -13.7240 ca         1 WGY       0.023000
      4 C6           6.2020     1.3130   -13.0450 ca         1 WGY      -0.312500
      5 C7           7.4150     1.5180   -13.7300 ca         1 WGY       0.023000
      6 C8           7.5230     1.1710   -15.0880 ca         1 WGY      -0.182000
      7 C            7.8210    -1.4830   -19.8170 c3         1 WGY      -0.078100
      8 O            8.4960     0.9730   -17.9740 o          1 WGY      -0.561100
      9 C1           7.0340    -0.1910   -19.4980 c3         1 WGY      -0.159400
     10 C2           7.4270     0.3950   -18.1340 c          1 WGY       0.607100
     11 C3           6.4230     0.6180   -15.7790 ca         1 WGY       0.043000
     12 S            6.0540     1.7510   -11.3150 sy         1 WGY       1.130600
     13 H11          6.1180     3.7770   -10.8390 hn         1 WGY       0.470500
     14 H10          5.6950     3.5320   -12.3640 hn         1 WGY       0.470500
     15 H6           4.3600    -0.0150   -15.5950 ha         1 WGY       0.134000
     16 H7           4.1560     0.5910   -13.2090 ha         1 WGY       0.137500
     17 H8           8.2790     1.9410   -13.2180 ha         1 WGY       0.137500
     18 H9           8.4760     1.3350   -15.5810 ha         1 WGY       0.134000
     19 H5           5.6270    -0.2380   -17.4610 hn         1 WGY       0.152000
     20 H2           7.5250    -1.8800   -20.7950 hc         1 WGY       0.046367
     21 H            8.9000    -1.2870   -19.8400 hc         1 WGY       0.046367
     22 H1           7.6260    -2.2530   -19.0610 hc         1 WGY       0.046367
     23 H3           7.2590     0.5480   -20.2760 hc         1 WGY       0.059700
     24 H4           5.9640    -0.4290   -19.5130 hc         1 WGY       0.059700
     25 N            6.4620     0.2410   -17.1480 ns         1 WGY      -0.154000
     26 O1           7.3790     1.9410   -10.7310 o          1 WGY      -0.547000
     27 O2           5.0030     0.9620   -10.6710 o          1 WGY      -0.547000
@<TRIPOS>BOND
     1     1    12 1   
     2     1    13 1   
     3     1    14 1   
     4     2     3 ar  
     5     2    11 ar  
     6     2    15 1   
     7     3     4 ar  
     8     3    16 1   
     9     4     5 ar  
    10     4    12 1   
    11     5     6 ar  
    12     5    17 1   
    13     6    11 ar  
    14     6    18 1   
    15     7     9 1   
    16     7    20 1   
    17     7    21 1   
    18     7    22 1   
    19     8    10 2   
    20     9    10 1   
    21     9    23 1   
    22     9    24 1   
    23    10    25 1   
    24    11    25 1   
    25    12    26 2   
    26    12    27 2   
    27    19    25 1   
@<TRIPOS>SUBSTRUCTURE
     1 WGY         1 TEMP              0 ****  ****    0 ROOT
