@<TRIPOS>MOLECULE
WGY
   27    27     1     0     0
SMALL
bcc


@<TRIPOS>ATOM
      1 N1           5.5690     3.4780   -11.6200 n8         1 WGY      -0.889700
      2 C4           5.1390     0.6050   -15.0740 ca         1 WGY      -0.200000
      3 C5           5.0570     1.0470   -13.7720 ca         1 WGY       0.005000
      4 C6           6.2230     1.3790   -13.0890 ca         1 WGY      -0.312500
      5 C7           7.4550     1.2640   -13.7110 ca         1 WGY       0.005000
      6 C8           7.5400     0.8220   -15.0210 ca         1 WGY      -0.200000
      7 C            8.0650    -1.0280   -20.1880 c3         1 WGY      -0.078100
      8 O            8.5510     0.0350   -17.6250 o          1 WGY      -0.561100
      9 C1           6.9270    -0.6090   -19.2760 c3         1 WGY      -0.159400
     10 C2           7.3850    -0.1550   -17.9080 c          1 WGY       0.674100
     11 C3           6.3780     0.4860   -15.7200 ca         1 WGY       0.135600
     12 S            6.1170     1.9300   -11.4200 sy         1 WGY       1.272200
     13 H11          5.1910     3.8500   -10.7530 hn         1 WGY       0.415300
     14 H10          6.2880     4.1000   -11.9770 hn         1 WGY       0.415300
     15 H6           4.2290     0.3460   -15.6010 ha         1 WGY       0.152000
     16 H7           4.0880     1.1300   -13.3000 ha         1 WGY       0.155500
     17 H8           8.3670     1.5130   -13.1860 ha         1 WGY       0.155500
     18 H9           8.5100     0.7380   -15.4810 ha         1 WGY       0.152000
     19 H5           5.4330    -0.1710   -17.3920 hn         1 WGY       0.318500
     20 H2           7.6700    -1.3230   -21.1590 hc         1 WGY       0.046367
     21 H            8.7720    -0.2150   -20.3510 hc         1 WGY       0.046367
     22 H1           8.6150    -1.8750   -19.7810 hc         1 WGY       0.046367
     23 H3           6.3620     0.2130   -19.7270 hc         1 WGY       0.059700
     24 H4           6.2100    -1.4260   -19.1560 hc         1 WGY       0.059700
     25 N            6.3530     0.0330   -17.0310 ns         1 WGY      -0.480100
     26 O1           7.4560     1.8780   -10.8450 o          1 WGY      -0.617800
     27 O2           5.0440     1.2220   -10.7360 o          1 WGY      -0.617800
@<TRIPOS>BOND
     1     1    12 1   
     2     1    13 1   
     3     1    14 1   
     4     2     3 ar  
     5     2    11 ar  
     6     2    15 1   
     7     3     4 ar  
     8     3    16 1   
     9     4     5 ar  
    10     4    12 1   
    11     5     6 ar  
    12     5    17 1   
    13     6    11 ar  
    14     6    18 1   
    15     7     9 1   
    16     7    20 1   
    17     7    21 1   
    18     7    22 1   
    19     8    10 2   
    20     9    10 1   
    21     9    23 1   
    22     9    24 1   
    23    10    25 1   
    24    11    25 1   
    25    12    26 2   
    26    12    27 2   
    27    19    25 1   
@<TRIPOS>SUBSTRUCTURE
     1 WGY         1 TEMP              0 ****  ****    0 ROOT
