@<TRIPOS>MOLECULE
WGZ
   65    69     1     0     0
SMALL
abcg2


@<TRIPOS>ATOM
      1 C01         26.4110    11.8620   -13.5470 c3         1 WGZ      -0.090100
      2 C02         26.2780    11.1200   -14.8660 c3         1 WGZ       0.221600
      3 O03         25.1050    10.2820   -14.7140 os         1 WGZ      -0.357100
      4 C04         24.7660     9.4340   -15.7070 cc         1 WGZ       0.158100
      5 C05         25.5570     9.1190   -16.8430 cc         1 WGZ      -0.204000
      6 C06         24.9280     8.2190   -17.6570 cd         1 WGZ      -0.101200
      7 N07         25.4180     7.7350   -18.8700 na         1 WGZ      -0.090400
      8 C08         25.4970     6.4080   -19.2610 cc         1 WGZ       0.431700
      9 N09         26.0050     6.2530   -20.4490 nd         1 WGZ      -0.551100
     10 C10         26.2850     7.5410   -20.9040 ca         1 WGZ       0.032400
     11 C11         26.8150     7.9790   -22.1130 ca         1 WGZ      -0.009000
     12 C12         26.9610     9.3420   -22.3230 ca         1 WGZ      -0.210000
     13 C13         26.5760    10.2780   -21.3400 ca         1 WGZ       0.163100
     14 O14         26.6490    11.6270   -21.5090 os         1 WGZ      -0.366100
     15 C15         27.2130    12.1760   -22.7220 c6         1 WGZ       0.175300
     16 C16         28.7380    12.1330   -22.6800 c6         1 WGZ      -0.086400
     17 C17         29.2990    13.0910   -21.6370 c6         1 WGZ       0.166300
     18 N18         28.8280    14.4570   -21.8620 n3         1 WGZ      -0.720600
     19 C19         29.4400    15.3860   -20.9240 c3         1 WGZ       0.152100
     20 C20         27.3690    14.5270   -21.7940 c6         1 WGZ       0.166300
     21 C21         26.7230    13.6130   -22.8280 c6         1 WGZ      -0.086400
     22 C22         26.0610     9.8570   -20.1130 ca         1 WGZ      -0.156000
     23 C23         25.9260     8.4890   -19.9260 ca         1 WGZ      -0.024200
     24 S24         23.3750     7.7460   -17.0740 ss         1 WGZ       0.335000
     25 C25         23.5570     8.7600   -15.6780 cd         1 WGZ      -0.339600
     26 C26         22.4590     8.7810   -14.7070 c          1 WGZ       0.647700
     27 N27         22.6080     9.5820   -13.6330 nt         1 WGZ      -0.596000
     28 O28         21.4470     8.0900   -14.8860 o          1 WGZ      -0.628100
     29 C29         26.1070    12.0620   -16.0450 ca         1 WGZ      -0.077300
     30 C30         24.8430    12.5920   -16.2900 ca         1 WGZ      -0.098000
     31 C31         24.6170    13.4600   -17.3500 ca         1 WGZ      -0.077000
     32 C32         25.6650    13.8210   -18.1850 ca         1 WGZ      -0.102000
     33 C33         26.9350    13.3130   -17.9510 ca         1 WGZ      -0.062000
     34 C34         27.1620    12.4400   -16.8900 ca         1 WGZ      -0.179300
     35 C35         28.5530    11.8940   -16.7040 c3         1 WGZ       0.341300
     36 F36         29.0180    12.0660   -15.4430 f          1 WGZ      -0.112667
     37 F37         29.4530    12.4640   -17.5240 f          1 WGZ      -0.112667
     38 F38         28.6170    10.5560   -16.9470 f          1 WGZ      -0.112667
     39 H011        26.5390    11.1520   -12.7300 hc         1 WGZ       0.057367
     40 H012        27.2760    12.5230   -13.5800 hc         1 WGZ       0.057367
     41 H013        25.5190    12.4630   -13.3660 hc         1 WGZ       0.057367
     42 H02         27.1320    10.4610   -15.0090 h1         1 WGZ       0.070700
     43 H05         26.5370     9.5090   -17.0530 ha         1 WGZ       0.162000
     44 H08         25.1690     5.6210   -18.5990 h5         1 WGZ       0.071800
     45 H11         27.1070     7.2720   -22.8790 ha         1 WGZ       0.131000
     46 H12         27.3750     9.6780   -23.2610 ha         1 WGZ       0.119000
     47 H22         25.7760    10.5830   -19.3640 ha         1 WGZ       0.136000
     48 H15         26.8310    11.6080   -23.5720 h1         1 WGZ       0.050700
     49 H161        29.0860    11.1200   -22.4740 hc         1 WGZ       0.059700
     50 H162        29.1100    12.4110   -23.6700 hc         1 WGZ       0.059700
     51 H211        26.9710    13.9720   -23.8300 hc         1 WGZ       0.059700
     52 H212        25.6370    13.6390   -22.7250 hc         1 WGZ       0.059700
     53 H171        29.0230    12.7420   -20.6270 h1         1 WGZ       0.035950
     54 H172        30.3890    13.0910   -21.6880 h1         1 WGZ       0.035950
     55 H191        29.1810    15.1580   -19.8760 h1         1 WGZ       0.031367
     56 H192        30.5260    15.3470   -21.0210 h1         1 WGZ       0.031367
     57 H193        29.1070    16.4020   -21.1420 h1         1 WGZ       0.031367
     58 H201        27.0120    14.2590   -20.7880 h1         1 WGZ       0.035950
     59 H202        27.0650    15.5600   -21.9760 h1         1 WGZ       0.035950
     60 H271        21.8570     9.6410   -12.9630 hn         1 WGZ       0.325000
     61 H272        23.4300    10.1530   -13.5140 hn         1 WGZ       0.325000
     62 H30         24.0210    12.3040   -15.6490 ha         1 WGZ       0.131000
     63 H31         23.6220    13.8500   -17.5220 ha         1 WGZ       0.125000
     64 H32         25.5000    14.4920   -19.0180 ha         1 WGZ       0.127000
     65 H33         27.7520    13.5900   -18.6000 ha         1 WGZ       0.135000
@<TRIPOS>BOND
     1     1     2 1   
     2     1    39 1   
     3     1    40 1   
     4     1    41 1   
     5     2     3 1   
     6     2    29 1   
     7     2    42 1   
     8     3     4 1   
     9     4     5 1   
    10     4    25 2   
    11     5     6 2   
    12     5    43 1   
    13     6     7 1   
    14     6    24 1   
    15     7     8 1   
    16     7    23 1   
    17     8     9 2   
    18     8    44 1   
    19     9    10 1   
    20    10    11 ar  
    21    10    23 ar  
    22    11    12 ar  
    23    11    45 1   
    24    12    13 ar  
    25    12    46 1   
    26    13    14 1   
    27    13    22 ar  
    28    14    15 1   
    29    15    16 1   
    30    15    21 1   
    31    15    48 1   
    32    16    17 1   
    33    16    49 1   
    34    16    50 1   
    35    17    18 1   
    36    17    53 1   
    37    17    54 1   
    38    18    19 1   
    39    18    20 1   
    40    19    55 1   
    41    19    56 1   
    42    19    57 1   
    43    20    21 1   
    44    20    58 1   
    45    20    59 1   
    46    21    51 1   
    47    21    52 1   
    48    22    23 ar  
    49    22    47 1   
    50    24    25 1   
    51    25    26 1   
    52    26    27 1   
    53    26    28 2   
    54    27    60 1   
    55    27    61 1   
    56    29    30 ar  
    57    29    34 ar  
    58    30    31 ar  
    59    30    62 1   
    60    31    32 ar  
    61    31    63 1   
    62    32    33 ar  
    63    32    64 1   
    64    33    34 ar  
    65    33    65 1   
    66    34    35 1   
    67    35    36 1   
    68    35    37 1   
    69    35    38 1   
@<TRIPOS>SUBSTRUCTURE
     1 WGZ         1 TEMP              0 ****  ****    0 ROOT
