@<TRIPOS>MOLECULE
WGZ
   65    69     1     0     0
SMALL
No Charge or Current Charge


@<TRIPOS>ATOM
      1 C01         26.3570    11.8680   -13.6310 c3         1 WGZ      -0.090100
      2 C02         26.2140    11.1470   -14.9830 c3         1 WGZ       0.221600
      3 O03         25.0540    10.2990   -14.8590 os         1 WGZ      -0.357100
      4 C04         24.7030     9.3940   -15.8280 cc         1 WGZ       0.158100
      5 C05         25.4120     9.1780   -17.0370 cc         1 WGZ      -0.204000
      6 C06         24.7850     8.2220   -17.7870 cd         1 WGZ      -0.101200
      7 N07         25.4790     7.6300   -18.8460 na         1 WGZ      -0.090400
      8 C08         25.4480     6.2950   -19.2430 cc         1 WGZ       0.431700
      9 N09         25.9680     6.1750   -20.4850 nd         1 WGZ      -0.551100
     10 C10         26.2410     7.4940   -20.8660 ca         1 WGZ       0.032400
     11 C11         26.7410     7.9240   -22.1020 ca         1 WGZ      -0.009000
     12 C12         26.8820     9.3080   -22.3310 ca         1 WGZ      -0.210000
     13 C13         26.5140    10.2510   -21.3300 ca         1 WGZ       0.163100
     14 O14         26.5820    11.6210   -21.5280 os         1 WGZ      -0.366100
     15 C15         27.2230    12.1980   -22.6920 c6         1 WGZ       0.175300
     16 C16         28.7670    12.0830   -22.6010 c6         1 WGZ      -0.086400
     17 C17         29.3340    13.0060   -21.4980 c6         1 WGZ       0.166300
     18 N18         28.9370    14.4220   -21.7270 n3         1 WGZ      -0.720600
     19 C19         29.5790    15.3490   -20.7710 c3         1 WGZ       0.152100
     20 C20         27.4570    14.5730   -21.7620 c6         1 WGZ       0.166300
     21 C21         26.8190    13.6820   -22.8500 c6         1 WGZ      -0.086400
     22 C22         26.0200     9.7930   -20.0910 ca         1 WGZ      -0.156000
     23 C23         25.9190     8.4020   -19.8890 ca         1 WGZ      -0.024200
     24 S24         23.4530     7.4090   -16.9470 ss         1 WGZ       0.335000
     25 C25         23.6050     8.5820   -15.6200 cd         1 WGZ      -0.339600
     26 C26         22.6400     8.5910   -14.5030 c          1 WGZ       0.647700
     27 N27         22.8200     9.5110   -13.5420 nt         1 WGZ      -0.596000
     28 O28         21.7050     7.8140   -14.4240 o          1 WGZ      -0.628100
     29 C29         26.0310    12.1480   -16.1420 ca         1 WGZ      -0.077300
     30 C30         24.7450    12.6960   -16.3540 ca         1 WGZ      -0.098000
     31 C31         24.5040    13.6010   -17.3960 ca         1 WGZ      -0.077000
     32 C32         25.5510    13.9810   -18.2410 ca         1 WGZ      -0.102000
     33 C33         26.8380    13.4610   -18.0400 ca         1 WGZ      -0.062000
     34 C34         27.1070    12.5460   -16.9940 ca         1 WGZ      -0.179300
     35 C35         28.5500    12.0200   -16.8150 c3         1 WGZ       0.341300
     36 F36         29.0050    12.1970   -15.5550 f          1 WGZ      -0.112667
     37 F37         29.4430    12.6370   -17.6230 f          1 WGZ      -0.112667
     38 F38         28.6430    10.7000   -17.0900 f          1 WGZ      -0.112667
     39 H011        26.5070    11.1420   -12.8230 hc         1 WGZ       0.057367
     40 H012        27.2160    12.5480   -13.6420 hc         1 WGZ       0.057367
     41 H013        25.4600    12.4580   -13.4070 hc         1 WGZ       0.057367
     42 H02         27.1020    10.5250   -15.1400 h1         1 WGZ       0.070700
     43 H05         26.3350     9.6770   -17.2990 ha         1 WGZ       0.162000
     44 H08         25.0660     5.4980   -18.6170 h5         1 WGZ       0.071800
     45 H11         26.9970     7.2020   -22.8740 ha         1 WGZ       0.131000
     46 H12         27.2590     9.6220   -23.2990 ha         1 WGZ       0.119000
     47 H22         25.7170    10.5090   -19.3330 ha         1 WGZ       0.136000
     48 H15         26.8610    11.6750   -23.5880 h1         1 WGZ       0.050700
     49 H161        29.0710    11.0470   -22.4060 hc         1 WGZ       0.059700
     50 H162        29.2110    12.3580   -23.5660 hc         1 WGZ       0.059700
     51 H211        27.1330    14.0410   -23.8390 hc         1 WGZ       0.059700
     52 H212        25.7260    13.7780   -22.8180 hc         1 WGZ       0.059700
     53 H171        28.9760    12.6600   -20.5170 h1         1 WGZ       0.035950
     54 H172        30.4300    12.9140   -21.4930 h1         1 WGZ       0.035950
     55 H191        29.2660    15.1350   -19.7410 h1         1 WGZ       0.031367
     56 H192        30.6730    15.2620   -20.8230 h1         1 WGZ       0.031367
     57 H193        29.3130    16.3890   -21.0020 h1         1 WGZ       0.031367
     58 H201        27.0210    14.3100   -20.7890 h1         1 WGZ       0.035950
     59 H202        27.1860    15.6200   -21.9620 h1         1 WGZ       0.035950
     60 H271        22.1850     9.5510   -12.7610 hn         1 WGZ       0.325000
     61 H272        23.6050    10.1410   -13.6180 hn         1 WGZ       0.325000
     62 H30         23.9170    12.4150   -15.7060 ha         1 WGZ       0.131000
     63 H31         23.5060    14.0070   -17.5460 ha         1 WGZ       0.125000
     64 H32         25.3670    14.6840   -19.0490 ha         1 WGZ       0.127000
     65 H33         27.6300    13.7830   -18.7080 ha         1 WGZ       0.135000
@<TRIPOS>BOND
     1     1     2 1   
     2     1    39 1   
     3     1    40 1   
     4     1    41 1   
     5     2     3 1   
     6     2    29 1   
     7     2    42 1   
     8     3     4 1   
     9     4     5 1   
    10     4    25 2   
    11     5     6 2   
    12     5    43 1   
    13     6     7 1   
    14     6    24 1   
    15     7     8 1   
    16     7    23 1   
    17     8     9 2   
    18     8    44 1   
    19     9    10 1   
    20    10    11 ar  
    21    10    23 ar  
    22    11    12 ar  
    23    11    45 1   
    24    12    13 ar  
    25    12    46 1   
    26    13    14 1   
    27    13    22 ar  
    28    14    15 1   
    29    15    16 1   
    30    15    21 1   
    31    15    48 1   
    32    16    17 1   
    33    16    49 1   
    34    16    50 1   
    35    17    18 1   
    36    17    53 1   
    37    17    54 1   
    38    18    19 1   
    39    18    20 1   
    40    19    55 1   
    41    19    56 1   
    42    19    57 1   
    43    20    21 1   
    44    20    58 1   
    45    20    59 1   
    46    21    51 1   
    47    21    52 1   
    48    22    23 ar  
    49    22    47 1   
    50    24    25 1   
    51    25    26 1   
    52    26    27 1   
    53    26    28 2   
    54    27    60 1   
    55    27    61 1   
    56    29    30 ar  
    57    29    34 ar  
    58    30    31 ar  
    59    30    62 1   
    60    31    32 ar  
    61    31    63 1   
    62    32    33 ar  
    63    32    64 1   
    64    33    34 ar  
    65    33    65 1   
    66    34    35 1   
    67    35    36 1   
    68    35    37 1   
    69    35    38 1   
@<TRIPOS>SUBSTRUCTURE
     1 WGZ         1 TEMP              0 ****  ****    0 ROOT
