@<TRIPOS>MOLECULE
WH1
   34    35     1     0     0
SMALL
No Charge or Current Charge


@<TRIPOS>ATOM
      1 N1         -10.3600   -14.5810   -17.0780 nb         1 WH1      -0.664000
      2 C4         -11.9990   -12.9710   -16.3080 ca         1 WH1      -0.165000
      3 C5         -12.2030   -13.6970   -15.1240 ca         1 WH1      -0.072000
      4 C6         -11.4630   -14.8750   -14.9390 ca         1 WH1      -0.165000
      5 C7         -10.5580   -15.2800   -15.9360 ca         1 WH1       0.350900
      6 C8          -9.2790   -10.6370   -16.1200 c          1 WH1       0.617700
      7 C10         -8.8920    -9.2790   -14.0220 ca         1 WH1      -0.075500
      8 C13        -11.6130    -8.6320   -13.7990 ca         1 WH1      -0.119000
      9 N           -9.9360   -10.6180   -17.3780 n          1 WH1      -0.411800
     10 C          -10.5860    -9.3820   -17.8780 c3         1 WH1       0.094300
     11 O           -8.3510   -11.4090   -15.9070 o          1 WH1      -0.585100
     12 C1          -9.6540   -11.6630   -18.3960 c3         1 WH1       0.098000
     13 C11         -9.3400    -8.4760   -12.9600 ca         1 WH1      -0.119000
     14 C12        -10.7000    -8.1470   -12.8500 ca         1 WH1      -0.095000
     15 C14        -11.1670    -9.4340   -14.8640 ca         1 WH1      -0.075500
     16 C3         -11.0680   -13.4420   -17.2540 ca         1 WH1       0.355300
     17 C9          -9.7950    -9.7520   -15.0010 ca         1 WH1      -0.142600
     18 H7         -12.5500   -12.0540   -16.4920 ha         1 WH1       0.115000
     19 H8         -12.9120   -13.3560   -14.3720 ha         1 WH1       0.115000
     20 H9         -11.5830   -15.4720   -14.0390 ha         1 WH1       0.123000
     21 H10         -9.9740   -16.1920   -15.8170 h4         1 WH1       0.019100
     22 H14        -12.6700    -8.3930   -13.7060 ha         1 WH1       0.114500
     23 H2         -10.2710    -8.5120   -17.2890 h1         1 WH1       0.038033
     24 H          -10.3060    -9.2020   -18.9240 h1         1 WH1       0.038033
     25 H1         -11.6760    -9.4880   -17.8210 h1         1 WH1       0.038033
     26 H3          -9.4810   -11.1840   -19.3700 h1         1 WH1       0.067700
     27 H4          -8.7330   -12.2060   -18.1500 h1         1 WH1       0.067700
     28 H12         -8.6310    -8.1100   -12.2200 ha         1 WH1       0.114500
     29 H13        -11.0470    -7.5270   -12.0260 ha         1 WH1       0.114000
     30 H15        -11.9000    -9.8250   -15.5640 ha         1 WH1       0.121000
     31 C2         -10.8070   -12.6740   -18.5390 c3         1 WH1      -0.146700
     32 H11         -7.8340    -9.5270   -14.0920 ha         1 WH1       0.121000
     33 H6         -11.7130   -12.1430   -18.8500 hc         1 WH1       0.057200
     34 H5         -10.5670   -13.3690   -19.3530 hc         1 WH1       0.057200
@<TRIPOS>BOND
     1     1     5 ar  
     2     1    16 ar  
     3     2     3 ar  
     4     2    16 ar  
     5     2    18 1   
     6     3     4 ar  
     7     3    19 1   
     8     4     5 ar  
     9     4    20 1   
    10     5    21 1   
    11     6     9 1   
    12     6    11 2   
    13     6    17 1   
    14     7    13 ar  
    15     7    17 ar  
    16     7    32 1   
    17     8    14 ar  
    18     8    15 ar  
    19     8    22 1   
    20     9    10 1   
    21     9    12 1   
    22    10    23 1   
    23    10    24 1   
    24    10    25 1   
    25    12    26 1   
    26    12    27 1   
    27    12    31 1   
    28    13    14 ar  
    29    13    28 1   
    30    14    29 1   
    31    15    17 ar  
    32    15    30 1   
    33    16    31 1   
    34    31    33 1   
    35    31    34 1   
@<TRIPOS>SUBSTRUCTURE
     1 WH1         1 TEMP              0 ****  ****    0 ROOT
