@<TRIPOS>MOLECULE
WH1
   34    35     1     0     0
SMALL
abcg2


@<TRIPOS>ATOM
      1 N1         -10.2910   -14.3220   -16.9350 nb         1 WH1      -0.664000
      2 C4         -12.1780   -12.9170   -16.5690 ca         1 WH1      -0.165000
      3 C5         -12.4650   -13.5750   -15.3830 ca         1 WH1      -0.072000
      4 C6         -11.6430   -14.6170   -14.9850 ca         1 WH1      -0.165000
      5 C7         -10.5720   -14.9500   -15.8020 ca         1 WH1       0.350900
      6 C8          -9.2530   -10.7470   -16.0780 c          1 WH1       0.617700
      7 C10         -8.8210    -9.1160   -14.2520 ca         1 WH1      -0.075500
      8 C13        -11.5150    -8.9850   -13.5950 ca         1 WH1      -0.119000
      9 N           -9.8020   -10.6470   -17.3080 n          1 WH1      -0.411800
     10 C          -10.7080    -9.5890   -17.7130 c3         1 WH1       0.094300
     11 O           -8.3750   -11.5520   -15.7980 o          1 WH1      -0.585100
     12 C1          -9.5030   -11.6460   -18.3180 c3         1 WH1       0.098000
     13 C11         -9.2400    -8.3230   -13.1940 ca         1 WH1      -0.119000
     14 C12        -10.5870    -8.2590   -12.8600 ca         1 WH1      -0.095000
     15 C14        -11.1010    -9.7590   -14.6690 ca         1 WH1      -0.075500
     16 C3         -11.0750   -13.3160   -17.3180 ca         1 WH1       0.355300
     17 C9          -9.7520    -9.8250   -15.0070 ca         1 WH1      -0.142600
     18 H7         -12.8060   -12.1070   -16.9170 ha         1 WH1       0.115000
     19 H8         -13.3150   -13.2770   -14.7840 ha         1 WH1       0.115000
     20 H9         -11.8240   -15.1620   -14.0690 ha         1 WH1       0.123000
     21 H10         -9.9130   -15.7660   -15.5260 h4         1 WH1       0.019100
     22 H14        -12.5640    -8.9500   -13.3320 ha         1 WH1       0.114500
     23 H2         -10.5740    -8.7000   -17.1040 h1         1 WH1       0.038033
     24 H          -10.4900    -9.3180   -18.7460 h1         1 WH1       0.038033
     25 H1         -11.7570    -9.8880   -17.6590 h1         1 WH1       0.038033
     26 H3          -9.2420   -11.1370   -19.2490 h1         1 WH1       0.067700
     27 H4          -8.6340   -12.2180   -18.0050 h1         1 WH1       0.067700
     28 H12         -8.5130    -7.7590   -12.6240 ha         1 WH1       0.114500
     29 H13        -10.9110    -7.6500   -12.0270 ha         1 WH1       0.114000
     30 H15        -11.8330   -10.3230   -15.2330 ha         1 WH1       0.121000
     31 C2         -10.6820   -12.5900   -18.5700 c3         1 WH1      -0.146700
     32 H11         -7.7690    -9.1740   -14.4980 ha         1 WH1       0.121000
     33 H6         -11.5310   -12.0350   -18.9730 hc         1 WH1       0.057200
     34 H5         -10.3790   -13.3080   -19.3360 hc         1 WH1       0.057200
@<TRIPOS>BOND
     1     1     5 ar  
     2     1    16 ar  
     3     2     3 ar  
     4     2    16 ar  
     5     2    18 1   
     6     3     4 ar  
     7     3    19 1   
     8     4     5 ar  
     9     4    20 1   
    10     5    21 1   
    11     6     9 1   
    12     6    11 2   
    13     6    17 1   
    14     7    13 ar  
    15     7    17 ar  
    16     7    32 1   
    17     8    14 ar  
    18     8    15 ar  
    19     8    22 1   
    20     9    10 1   
    21     9    12 1   
    22    10    23 1   
    23    10    24 1   
    24    10    25 1   
    25    12    26 1   
    26    12    27 1   
    27    12    31 1   
    28    13    14 ar  
    29    13    28 1   
    30    14    29 1   
    31    15    17 ar  
    32    15    30 1   
    33    16    31 1   
    34    31    33 1   
    35    31    34 1   
@<TRIPOS>SUBSTRUCTURE
     1 WH1         1 TEMP              0 ****  ****    0 ROOT
