@<TRIPOS>MOLECULE
WH2
   57    60     1     0     0
SMALL
No Charge or Current Charge


@<TRIPOS>ATOM
      1 C01         73.8660   103.4490    83.1690 c5         1 WH2       0.170000
      2 C02         72.3220   102.0280    84.7510 c6         1 WH2      -0.080300
      3 C03         73.1790   103.3330    84.5650 c6         1 WH2      -0.078400
      4 C04         74.5560   104.8200    82.9330 c5         1 WH2      -0.083900
      5 C05         75.0790   102.5080    82.8920 c5         1 WH2      -0.083900
      6 C06         71.3180   102.0170    83.5490 c6         1 WH2      -0.110400
      7 C07         75.3640   104.6120    81.6170 c5         1 WH2      -0.071900
      8 C08         75.7010   103.0870    81.5870 c5         1 WH2      -0.071900
      9 C10         72.0250   102.1080    82.1720 c6         1 WH2       0.157600
     10 C11         73.2200   100.7450    84.8240 ca         1 WH2       0.361300
     11 C13         72.9160    99.5430    84.1380 ca         1 WH2      -0.162000
     12 C14         73.7590    98.4290    84.2750 ca         1 WH2      -0.073000
     13 C15         75.1070    99.7530    85.7780 ca         1 WH2       0.341900
     14 C16         68.9220   104.1300    88.0110 c3         1 WH2       0.241100
     15 C17         74.8790    98.5420    85.1090 ca         1 WH2      -0.168000
     16 C18         68.3130   103.8070    89.3410 cc         1 WH2      -0.257300
     17 C19         67.2680   102.9710    89.6260 cd         1 WH2       0.099100
     18 C20         66.9180   102.8900    91.0030 cd         1 WH2      -0.187000
     19 C21         67.7120   103.6830    91.7930 cc         1 WH2      -0.226000
     20 C22         65.5380   101.4060    88.9220 c3         1 WH2       0.150900
     21 N01         74.2980   100.8270    85.6490 nb         1 WH2      -0.679000
     22 N02         69.9040   103.0920    87.6770 n7         1 WH2      -0.861400
     23 O01         72.8810   103.2720    82.1090 os         1 WH2      -0.463000
     24 O02         66.6360   102.2850    88.6230 os         1 WH2      -0.338100
     25 S01         68.9120   104.5450    90.8250 ss         1 WH2       0.242000
     26 H1          73.9340   103.4270    85.3580 hc         1 WH2       0.062200
     27 H2          72.5400   104.2170    84.6750 hc         1 WH2       0.062200
     28 H3          75.2250   105.0700    83.7660 hc         1 WH2       0.050450
     29 H4          73.8350   105.6420    82.8490 hc         1 WH2       0.050450
     30 H5          74.8020   101.4570    82.7680 hc         1 WH2       0.050450
     31 H6          75.8000   102.5490    83.7170 hc         1 WH2       0.050450
     32 H7          70.6470   102.8830    83.6120 hc         1 WH2       0.051700
     33 H8          70.6550   101.1430    83.5850 hc         1 WH2       0.051700
     34 H9          76.2660   105.2340    81.5960 hc         1 WH2       0.041200
     35 H10         74.7670   104.8920    80.7410 hc         1 WH2       0.041200
     36 H11         75.2630   102.6140    80.7000 hc         1 WH2       0.041200
     37 H12         76.7810   102.9050    81.5400 hc         1 WH2       0.041200
     38 H13         70.9820   101.1230    86.2290 hc         1 WH2       0.055700
     39 H14         72.2470   102.0920    86.9450 hc         1 WH2       0.055700
     40 H15         71.2760   102.1780    81.3710 h1         1 WH2       0.042700
     41 H16         72.6280   101.2090    81.9860 h1         1 WH2       0.042700
     42 H17         71.0460   104.1870    86.2780 h1         1 WH2       0.031200
     43 H18         69.7470   103.2010    85.5740 h1         1 WH2       0.031200
     44 H19         72.0400    99.4540    83.5060 ha         1 WH2       0.123000
     45 H20         73.5460    97.4990    83.7500 ha         1 WH2       0.118000
     46 H21         75.9640    99.8680    86.4410 h4         1 WH2       0.019100
     47 H22         69.3970   105.1200    88.0540 h1         1 WH2       0.044200
     48 H23         68.1260   104.1730    87.2540 h1         1 WH2       0.044200
     49 H24         75.5590    97.7060    85.2470 ha         1 WH2       0.124000
     50 H25         66.1160   102.2760    91.4010 ha         1 WH2       0.135000
     51 H26         67.6880   103.8290    92.8660 h4         1 WH2       0.150000
     52 H27         65.1580   100.9440    88.0020 h1         1 WH2       0.041033
     53 H28         65.8540   100.6030    89.6000 h1         1 WH2       0.041033
     54 H29         64.7130   101.9580    89.3910 h1         1 WH2       0.041033
     55 H30         69.4050   102.1970    87.7120 hn         1 WH2       0.409000
     56 C09         71.5300   102.0670    86.1150 c3         1 WH2      -0.073400
     57 C12         70.5250   103.2240    86.3480 c3         1 WH2       0.157800
@<TRIPOS>BOND
     1     1     3 1   
     2     1     4 1   
     3     1     5 1   
     4     1    23 1   
     5     2     3 1   
     6     2     6 1   
     7     2    10 1   
     8     2    56 1   
     9     3    26 1   
    10     3    27 1   
    11     4     7 1   
    12     4    28 1   
    13     4    29 1   
    14     5     8 1   
    15     5    30 1   
    16     5    31 1   
    17     6     9 1   
    18     6    32 1   
    19     6    33 1   
    20     7     8 1   
    21     7    34 1   
    22     7    35 1   
    23     8    36 1   
    24     8    37 1   
    25     9    23 1   
    26     9    40 1   
    27     9    41 1   
    28    10    11 ar  
    29    10    21 ar  
    30    11    12 ar  
    31    11    44 1   
    32    12    15 ar  
    33    12    45 1   
    34    13    15 ar  
    35    13    21 ar  
    36    13    46 1   
    37    14    16 1   
    38    14    22 1   
    39    14    47 1   
    40    14    48 1   
    41    15    49 1   
    42    16    17 2   
    43    16    25 1   
    44    17    18 1   
    45    17    24 1   
    46    18    19 2   
    47    18    50 1   
    48    19    25 1   
    49    19    51 1   
    50    20    24 1   
    51    20    52 1   
    52    20    53 1   
    53    20    54 1   
    54    22    55 1   
    55    22    57 1   
    56    38    56 1   
    57    39    56 1   
    58    42    57 1   
    59    43    57 1   
    60    56    57 1   
@<TRIPOS>SUBSTRUCTURE
     1 WH2         1 TEMP              0 ****  ****    0 ROOT
