@<TRIPOS>MOLECULE
WH2
   57    60     1     0     0
SMALL
abcg2


@<TRIPOS>ATOM
      1 C01         73.6880   103.4010    83.1260 c5         1 WH2       0.170000
      2 C02         72.4100   101.9060    84.8090 c6         1 WH2      -0.080300
      3 C03         73.1620   103.2290    84.5510 c6         1 WH2      -0.078400
      4 C04         74.1820   104.8260    82.8620 c5         1 WH2      -0.083900
      5 C05         74.9160   102.5590    82.7360 c5         1 WH2      -0.083900
      6 C06         71.3590   101.7580    83.6950 c6         1 WH2      -0.110400
      7 C07         75.1010   104.7410    81.6250 c5         1 WH2      -0.071900
      8 C08         75.4540   103.2390    81.4690 c5         1 WH2      -0.071900
      9 C10         71.9590   101.9300    82.3080 c6         1 WH2       0.157600
     10 C11         73.3880   100.7250    84.8640 ca         1 WH2       0.361300
     11 C13         73.1370    99.4940    84.2560 ca         1 WH2      -0.162000
     12 C14         74.0520    98.4590    84.3970 ca         1 WH2      -0.073000
     13 C15         75.3680    99.9180    85.7320 ca         1 WH2       0.341900
     14 C16         69.1810   103.9150    88.1430 c3         1 WH2       0.241100
     15 C17         75.2010    98.6700    85.1460 ca         1 WH2      -0.168000
     16 C18         68.4380   103.6190    89.4020 cc         1 WH2      -0.257300
     17 C19         67.1990   103.0340    89.5230 cd         1 WH2       0.099100
     18 C20         66.7850   102.8470    90.8790 cd         1 WH2      -0.187000
     19 C21         67.7260   103.2870    91.7650 cc         1 WH2      -0.226000
     20 C22         65.1750   102.1700    88.6110 c3         1 WH2       0.150900
     21 N01         74.4920   100.9140    85.6000 nb         1 WH2      -0.679000
     22 N02         70.1510   102.8600    87.8180 n7         1 WH2      -0.861400
     23 O01         72.6140   103.1890    82.1780 os         1 WH2      -0.463000
     24 O02         66.4930   102.6850    88.4140 os         1 WH2      -0.338100
     25 S01         69.1060   103.9250    90.9680 ss         1 WH2       0.242000
     26 H1          73.9870   103.3310    85.2550 hc         1 WH2       0.062200
     27 H2          72.4690   104.0520    84.7340 hc         1 WH2       0.062200
     28 H3          74.7430   105.1620    83.7370 hc         1 WH2       0.050450
     29 H4          73.3370   105.5040    82.7310 hc         1 WH2       0.050450
     30 H5          74.6920   101.5040    82.5900 hc         1 WH2       0.050450
     31 H6          75.6420   102.6230    83.5480 hc         1 WH2       0.050450
     32 H7          70.6060   102.5360    83.8280 hc         1 WH2       0.051700
     33 H8          70.8350   100.8040    83.7660 hc         1 WH2       0.051700
     34 H9          75.9950   105.3500    81.7630 hc         1 WH2       0.041200
     35 H10         74.5960   105.1140    80.7340 hc         1 WH2       0.041200
     36 H11         74.9600   102.8260    80.5880 hc         1 WH2       0.041200
     37 H12         76.5250   103.0740    81.3440 hc         1 WH2       0.041200
     38 H13         71.1860   100.9760    86.3150 hc         1 WH2       0.055700
     39 H14         72.5140   101.9210    86.9650 hc         1 WH2       0.055700
     40 H15         71.1740   101.9240    81.5500 h1         1 WH2       0.042700
     41 H16         72.6520   101.1170    82.0720 h1         1 WH2       0.042700
     42 H17         71.3110   104.0160    86.5460 h1         1 WH2       0.031200
     43 H18         70.0130   103.1660    85.7190 h1         1 WH2       0.031200
     44 H19         72.2440    99.3350    83.6720 ha         1 WH2       0.123000
     45 H20         73.8670    97.5020    83.9240 ha         1 WH2       0.118000
     46 H21         76.2450   100.1260    86.3360 h4         1 WH2       0.019100
     47 H22         69.7300   104.8550    88.2350 h1         1 WH2       0.044200
     48 H23         68.4460   104.0540    87.3370 h1         1 WH2       0.044200
     49 H24         75.9430    97.8950    85.2790 ha         1 WH2       0.124000
     50 H25         65.8450   102.4110    91.1790 ha         1 WH2       0.135000
     51 H26         67.6770   103.2720    92.8420 h4         1 WH2       0.150000
     52 H27         64.7730   101.9870    87.6180 h1         1 WH2       0.041033
     53 H28         65.2010   101.2340    89.1740 h1         1 WH2       0.041033
     54 H29         64.5470   102.8940    89.1350 h1         1 WH2       0.041033
     55 H30         69.6610   101.9710    87.8110 hn         1 WH2       0.409000
     56 C09         71.7300   101.9210    86.2050 c3         1 WH2      -0.073400
     57 C12         70.7720   103.0670    86.5080 c3         1 WH2       0.157800
@<TRIPOS>BOND
     1     1     3 1   
     2     1     4 1   
     3     1     5 1   
     4     1    23 1   
     5     2     3 1   
     6     2     6 1   
     7     2    10 1   
     8     2    56 1   
     9     3    26 1   
    10     3    27 1   
    11     4     7 1   
    12     4    28 1   
    13     4    29 1   
    14     5     8 1   
    15     5    30 1   
    16     5    31 1   
    17     6     9 1   
    18     6    32 1   
    19     6    33 1   
    20     7     8 1   
    21     7    34 1   
    22     7    35 1   
    23     8    36 1   
    24     8    37 1   
    25     9    23 1   
    26     9    40 1   
    27     9    41 1   
    28    10    11 ar  
    29    10    21 ar  
    30    11    12 ar  
    31    11    44 1   
    32    12    15 ar  
    33    12    45 1   
    34    13    15 ar  
    35    13    21 ar  
    36    13    46 1   
    37    14    16 1   
    38    14    22 1   
    39    14    47 1   
    40    14    48 1   
    41    15    49 1   
    42    16    17 2   
    43    16    25 1   
    44    17    18 1   
    45    17    24 1   
    46    18    19 2   
    47    18    50 1   
    48    19    25 1   
    49    19    51 1   
    50    20    24 1   
    51    20    52 1   
    52    20    53 1   
    53    20    54 1   
    54    22    55 1   
    55    22    57 1   
    56    38    56 1   
    57    39    56 1   
    58    42    57 1   
    59    43    57 1   
    60    56    57 1   
@<TRIPOS>SUBSTRUCTURE
     1 WH2         1 TEMP              0 ****  ****    0 ROOT
