@<TRIPOS>MOLECULE
WH3
   38    41     1     0     0
SMALL
No Charge or Current Charge


@<TRIPOS>ATOM
      1 C01          5.8700     6.7240    17.9960 c5         1 WH3      -0.138700
      2 C02          6.1880     8.2030    18.2720 c5         1 WH3       0.138200
      3 C04          7.1350     6.3240    17.1010 c5         1 WH3      -0.181700
      4 C06          7.9220     7.6820    17.0890 c5         1 WH3       0.182500
      5 C10          6.7980     5.8870    15.6460 c          1 WH3       0.725000
      6 C11          8.4120     7.9580    18.5130 c2         1 WH3      -0.235200
      7 O14          7.1210     4.7580    15.3060 o          1 WH3      -0.716000
      8 C16          1.5690     8.2030    18.6300 c3         1 WH3      -0.057100
      9 C17          1.5540     6.7710    19.1530 ca         1 WH3      -0.067300
     10 C18          2.3660     6.4040    20.2450 ca         1 WH3      -0.100500
     11 C19          0.7430     5.7990    18.5360 ca         1 WH3      -0.100500
     12 C20          0.7420     4.4740    19.0070 ca         1 WH3      -0.105500
     13 C21          2.3660     5.0800    20.7140 ca         1 WH3      -0.105500
     14 C22          1.5540     4.1140    20.0960 ca         1 WH3      -0.110000
     15 C03          4.4830     6.8100    17.3360 c          1 WH3       0.594000
     16 N05          3.9240     8.0310    17.7670 n          1 WH3      -0.430800
     17 O07          6.8310     8.6120    17.0640 os         1 WH3      -0.416000
     18 C08          4.8350     8.9190    18.5290 c5         1 WH3       0.137000
     19 C09          7.3410     8.3030    19.2390 c2         1 WH3      -0.260200
     20 O15          6.3000     6.6720    14.8520 o          1 WH3      -0.716000
     21 H23          5.7870     6.1470    18.9230 hc         1 WH3       0.060700
     22 H24          7.7000     5.5210    17.5880 hc         1 WH3       0.049700
     23 H25          8.6430     7.8380    16.2730 h1         1 WH3       0.106700
     24 H29          9.4420     7.9030    18.8700 ha         1 WH3       0.183000
     25 H31          2.5040     9.4370    17.1170 h1         1 WH3       0.057200
     26 H30          2.1770     7.7810    16.5920 h1         1 WH3       0.057200
     27 H34          1.8560     8.8970    19.4290 hc         1 WH3       0.038200
     28 H33          0.5610     8.5000    18.3180 hc         1 WH3       0.038200
     29 H35          3.0020     7.1440    20.7250 ha         1 WH3       0.105000
     30 H36          0.1170     6.0680    17.6890 ha         1 WH3       0.105000
     31 H37          0.1150     3.7270    18.5260 ha         1 WH3       0.104500
     32 H38          2.9970     4.8020    21.5560 ha         1 WH3       0.104500
     33 H39          1.5550     3.0890    20.4590 ha         1 WH3       0.104000
     34 H27          4.5740     8.9230    19.5950 h1         1 WH3       0.036200
     35 H26          4.8280     9.9500    18.1530 h1         1 WH3       0.036200
     36 H28          7.3160     8.5740    20.2960 ha         1 WH3       0.180000
     37 O12          3.9130     5.9790    16.6390 o          1 WH3      -0.517000
     38 C13          2.5300     8.3870    17.4370 c3         1 WH3       0.117000
@<TRIPOS>BOND
     1     1     2 1   
     2     1     3 1   
     3     1    15 1   
     4     1    21 1   
     5     2    17 1   
     6     2    18 1   
     7     2    19 1   
     8     3     4 1   
     9     3     5 1   
    10     3    22 1   
    11     4     6 1   
    12     4    17 1   
    13     4    23 1   
    14     5     7 1   
    15     5    20 1   
    16     6    19 2   
    17     6    24 1   
    18     8     9 1   
    19     8    27 1   
    20     8    28 1   
    21     8    38 1   
    22     9    10 ar  
    23     9    11 ar  
    24    10    13 ar  
    25    10    29 1   
    26    11    12 ar  
    27    11    30 1   
    28    12    14 ar  
    29    12    31 1   
    30    13    14 ar  
    31    13    32 1   
    32    14    33 1   
    33    15    16 1   
    34    15    37 2   
    35    16    18 1   
    36    16    38 1   
    37    18    34 1   
    38    18    35 1   
    39    19    36 1   
    40    25    38 1   
    41    26    38 1   
@<TRIPOS>SUBSTRUCTURE
     1 WH3         1 TEMP              0 ****  ****    0 ROOT
