@<TRIPOS>MOLECULE
WH3
   38    41     1     0     0
SMALL
abcg2


@<TRIPOS>ATOM
      1 C01          5.8530     6.7620    17.9610 c5         1 WH3      -0.138700
      2 C02          6.1250     8.2590    18.3030 c5         1 WH3       0.138200
      3 C04          7.1110     6.3790    17.1350 c5         1 WH3      -0.181700
      4 C06          7.8520     7.7600    17.1450 c5         1 WH3       0.182500
      5 C10          6.8490     5.8010    15.7230 c          1 WH3       0.725000
      6 C11          8.3500     7.9960    18.5650 c2         1 WH3      -0.235200
      7 O14          6.8580     4.5450    15.6440 o          1 WH3      -0.716000
      8 C16          1.6270     8.2190    18.6570 c3         1 WH3      -0.057100
      9 C17          1.5930     6.8050    19.1700 ca         1 WH3      -0.067300
     10 C18          2.5200     6.3630    20.1150 ca         1 WH3      -0.100500
     11 C19          0.6800     5.8840    18.6530 ca         1 WH3      -0.100500
     12 C20          0.6990     4.5540    19.0590 ca         1 WH3      -0.105500
     13 C21          2.5470     5.0330    20.5220 ca         1 WH3      -0.105500
     14 C22          1.6370     4.1220    19.9930 ca         1 WH3      -0.110000
     15 C03          4.4650     6.8270    17.3380 c          1 WH3       0.594000
     16 N05          3.9090     8.0190    17.6750 n          1 WH3      -0.430800
     17 O07          6.7530     8.6870    17.0780 os         1 WH3      -0.416000
     18 C08          4.7680     8.8890    18.4740 c5         1 WH3       0.137000
     19 C09          7.2740     8.3240    19.2820 c2         1 WH3      -0.260200
     20 O15          6.6690     6.6030    14.7760 o          1 WH3      -0.716000
     21 H23          5.7560     6.1440    18.8550 hc         1 WH3       0.060700
     22 H24          7.6900     5.6360    17.6800 hc         1 WH3       0.049700
     23 H25          8.5460     7.9180    16.3270 h1         1 WH3       0.106700
     24 H29          9.3570     7.8120    18.9110 ha         1 WH3       0.183000
     25 H31          2.4880     9.3950    17.0560 h1         1 WH3       0.057200
     26 H30          2.1710     7.7110    16.6200 h1         1 WH3       0.057200
     27 H34          1.9810     8.8960    19.4380 hc         1 WH3       0.038200
     28 H33          0.6240     8.5450    18.3760 hc         1 WH3       0.038200
     29 H35          3.2320     7.0640    20.5350 ha         1 WH3       0.105000
     30 H36         -0.0470     6.2120    17.9190 ha         1 WH3       0.105000
     31 H37         -0.0170     3.8550    18.6460 ha         1 WH3       0.104500
     32 H38          3.2780     4.7080    21.2520 ha         1 WH3       0.104500
     33 H39          1.6560     3.0870    20.3080 ha         1 WH3       0.104000
     34 H27          4.4650     8.8970    19.5250 h1         1 WH3       0.036200
     35 H26          4.7400     9.9130    18.0970 h1         1 WH3       0.036200
     36 H28          7.1830     8.4660    20.3490 ha         1 WH3       0.180000
     37 O12          3.9040     5.9410    16.7010 o          1 WH3      -0.517000
     38 C13          2.5260     8.3640    17.4150 c3         1 WH3       0.117000
@<TRIPOS>BOND
     1     1     2 1   
     2     1     3 1   
     3     1    15 1   
     4     1    21 1   
     5     2    17 1   
     6     2    18 1   
     7     2    19 1   
     8     3     4 1   
     9     3     5 1   
    10     3    22 1   
    11     4     6 1   
    12     4    17 1   
    13     4    23 1   
    14     5     7 1   
    15     5    20 1   
    16     6    19 2   
    17     6    24 1   
    18     8     9 1   
    19     8    27 1   
    20     8    28 1   
    21     8    38 1   
    22     9    10 ar  
    23     9    11 ar  
    24    10    13 ar  
    25    10    29 1   
    26    11    12 ar  
    27    11    30 1   
    28    12    14 ar  
    29    12    31 1   
    30    13    14 ar  
    31    13    32 1   
    32    14    33 1   
    33    15    16 1   
    34    15    37 2   
    35    16    18 1   
    36    16    38 1   
    37    18    34 1   
    38    18    35 1   
    39    19    36 1   
    40    25    38 1   
    41    26    38 1   
@<TRIPOS>SUBSTRUCTURE
     1 WH3         1 TEMP              0 ****  ****    0 ROOT
