@<TRIPOS>MOLECULE
WH4
   22    22     1     0     0
SMALL
bcc


@<TRIPOS>ATOM
      1 N1           8.2520    -2.0670   -10.5130 nb         1 WH4      -0.634000
      2 C4           6.1380    -1.2570   -12.1180 ca         1 WH4      -0.176000
      3 C5           6.0730    -2.4290   -11.3830 ca         1 WH4      -0.202300
      4 C6           7.1470    -2.8050   -10.5930 ca         1 WH4       0.342200
      5 C7           8.3220    -0.9510   -11.2120 ca         1 WH4       0.328200
      6 C            7.0290     2.3960   -14.3990 c3         1 WH4      -0.112100
      7 C1           6.4200     1.4000   -13.4240 c3         1 WH4       0.224500
      8 C2           5.5020     2.0980   -12.4220 c3         1 WH4      -0.112100
      9 C3           7.2980    -0.4770   -12.0550 ca         1 WH4       0.068300
     10 H8           5.2950    -0.9630   -12.7300 ha         1 WH4       0.135000
     11 H9           5.1860    -3.0470   -11.4200 ha         1 WH4       0.135000
     12 H10          7.1200    -3.7170   -10.0080 h4         1 WH4       0.019100
     13 H11          9.2390    -0.3730   -11.1230 h4         1 WH4       0.012100
     14 H7           8.2670     1.2340   -12.4700 hn         1 WH4       0.413800
     15 H1           7.6510     1.8940   -15.1410 hc         1 WH4       0.042200
     16 H2           6.2460     2.9410   -14.9250 hc         1 WH4       0.042200
     17 H            7.6480     3.1300   -13.8760 hc         1 WH4       0.042200
     18 H3           5.8300     0.6860   -14.0050 h1         1 WH4       0.060700
     19 H5           5.0520     1.3920   -11.7230 hc         1 WH4       0.042200
     20 H4           6.0580     2.8390   -11.8440 hc         1 WH4       0.042200
     21 H6           4.6910     2.6130   -12.9380 hc         1 WH4       0.042200
     22 N            7.4950     0.6630   -12.7820 nu         1 WH4      -0.755600
@<TRIPOS>BOND
     1     1     4 ar  
     2     1     5 ar  
     3     2     3 ar  
     4     2     9 ar  
     5     2    10 1   
     6     3     4 ar  
     7     3    11 1   
     8     4    12 1   
     9     5     9 ar  
    10     5    13 1   
    11     6     7 1   
    12     6    15 1   
    13     6    16 1   
    14     6    17 1   
    15     7     8 1   
    16     7    18 1   
    17     7    22 1   
    18     8    19 1   
    19     8    20 1   
    20     8    21 1   
    21     9    22 1   
    22    14    22 1   
@<TRIPOS>SUBSTRUCTURE
     1 WH4         1 TEMP              0 ****  ****    0 ROOT
