@<TRIPOS>MOLECULE
WH4
   22    22     1     0     0
SMALL
No Charge or Current Charge


@<TRIPOS>ATOM
      1 N1           8.2450    -2.0550   -10.3820 nb         1 WH4      -0.634000
      2 C4           6.1620    -1.3280   -12.1670 ca         1 WH4      -0.158000
      3 C5           6.0740    -2.4870   -11.3720 ca         1 WH4      -0.119000
      4 C6           7.1290    -2.8110   -10.4980 ca         1 WH4       0.276900
      5 C7           8.3240    -0.9370   -11.1530 ca         1 WH4       0.262900
      6 C            7.0180     2.4740   -14.4170 c3         1 WH4      -0.112100
      7 C1           6.3840     1.4390   -13.4700 c3         1 WH4       0.224500
      8 C2           5.5100     2.1050   -12.3890 c3         1 WH4      -0.112100
      9 C3           7.3110    -0.5200   -12.0620 ca         1 WH4       0.272000
     10 H8           5.3540    -1.0750   -12.8470 ha         1 WH4       0.117000
     11 H9           5.2000    -3.1320   -11.4280 ha         1 WH4       0.117000
     12 H10          7.0790    -3.7040    -9.8750 h4         1 WH4       0.019100
     13 H11          9.2340    -0.3490   -11.0380 h4         1 WH4       0.012100
     14 H7           8.3570     1.1220   -12.7520 hn         1 WH4       0.469000
     15 H1           7.6190     1.9770   -15.1880 hc         1 WH4       0.042200
     16 H2           6.2380     3.0560   -14.9230 hc         1 WH4       0.042200
     17 H            7.6630     3.1700   -13.8680 hc         1 WH4       0.042200
     18 H3           5.7470     0.7820   -14.0800 h1         1 WH4       0.060700
     19 H5           5.0380     1.3520   -11.7470 hc         1 WH4       0.042200
     20 H4           6.1080     2.7720   -11.7560 hc         1 WH4       0.042200
     21 H6           4.7130     2.6970   -12.8530 hc         1 WH4       0.042200
     22 N            7.4530     0.6510   -12.8400 nu         1 WH4      -0.949200
@<TRIPOS>BOND
     1     1     4 ar  
     2     1     5 ar  
     3     2     3 ar  
     4     2     9 ar  
     5     2    10 1   
     6     3     4 ar  
     7     3    11 1   
     8     4    12 1   
     9     5     9 ar  
    10     5    13 1   
    11     6     7 1   
    12     6    15 1   
    13     6    16 1   
    14     6    17 1   
    15     7     8 1   
    16     7    18 1   
    17     7    22 1   
    18     8    19 1   
    19     8    20 1   
    20     8    21 1   
    21     9    22 1   
    22    14    22 1   
@<TRIPOS>SUBSTRUCTURE
     1 WH4         1 TEMP              0 ****  ****    0 ROOT
