@<TRIPOS>MOLECULE
WH6
   45    48     1     0     0
SMALL
bcc


@<TRIPOS>ATOM
      1 CAZ          3.1360     0.9780    -0.2130 ca         1 WH6      -0.021000
      2 CAN          3.9600     0.2470     0.6780 ca         1 WH6      -0.087000
      3 CAH          4.6850     0.8770     1.6540 ca         1 WH6      -0.146000
      4 CAG          4.6230     2.2770     1.7970 ca         1 WH6      -0.133000
      5 CAL          3.8400     3.0140     0.9530 ca         1 WH6      -0.126000
      6 CAY          3.0830     2.3910    -0.0680 ca         1 WH6      -0.030000
      7 CAM          2.2770     3.1540    -0.9450 ca         1 WH6      -0.139000
      8 CAI          1.5620     2.5380    -1.9320 ca         1 WH6      -0.112000
      9 CAJ          1.6180     1.1380    -2.0780 ca         1 WH6      -0.134000
     10 CAV          2.3750     0.3530    -1.2440 ca         1 WH6      -0.038300
     11 CAR          2.3440    -1.1410    -1.4010 c3         1 WH6      -0.064100
     12 CBC          1.4330    -1.8290    -0.3720 c3         1 WH6       0.145700
     13 CAQ          1.3630    -3.3340    -0.5820 c3         1 WH6      -0.220400
     14 CAS          0.4670    -4.0770     0.4270 c          1 WH6       0.930600
     15 OAE          0.2910    -3.5370     1.5360 o          1 WH6      -0.838300
     16 OAA          0.0180    -5.1800     0.0540 o          1 WH6      -0.838300
     17 N1           0.1160    -1.2070    -0.3540 n          1 WH6      -0.496400
     18 CAX         -0.3320    -0.4280     0.7070 c          1 WH6       0.748100
     19 OAD          0.2870    -0.1790     1.7100 o          1 WH6      -0.578500
     20 CBB         -1.6850     0.0430     0.3340 ca         1 WH6      -0.162600
     21 CAP         -2.5740     0.8380     1.0240 ca         1 WH6      -0.041000
     22 CAU         -3.7960     1.1360     0.4140 ca         1 WH6      -0.139600
     23 CAT         -4.8190     2.0130     1.1370 c          1 WH6       0.926200
     24 OAF         -5.8810     2.2390     0.5300 o          1 WH6      -0.830300
     25 OAB         -4.4920     2.4180     2.2670 o          1 WH6      -0.830300
     26 CAK         -4.0750     0.6310    -0.8570 ca         1 WH6      -0.113000
     27 CAO         -3.1700    -0.1710    -1.5480 ca         1 WH6      -0.105000
     28 CBA         -1.9740    -0.4530    -0.9240 ca         1 WH6      -0.165600
     29 CAW         -0.8100    -1.2500    -1.3800 c          1 WH6       0.741100
     30 OAC         -0.6770    -1.8190    -2.4370 o          1 WH6      -0.622500
     31 HAN          4.0280    -0.8290     0.5900 ha         1 WH6       0.141000
     32 HAH          5.3080     0.2950     2.3200 ha         1 WH6       0.118000
     33 HAG          5.1970     2.7650     2.5740 ha         1 WH6       0.111000
     34 HAL          3.7880     4.0920     1.0550 ha         1 WH6       0.115000
     35 HAM          2.2380     4.2290    -0.8230 ha         1 WH6       0.116000
     36 HAI          0.9490     3.1200    -2.6080 ha         1 WH6       0.122000
     37 HAJ          1.0480     0.6710    -2.8730 ha         1 WH6       0.139000
     38 HAR          2.0060    -1.3910    -2.4080 hc         1 WH6       0.047200
     39 HARA         3.3430    -1.5700    -1.3020 hc         1 WH6       0.047200
     40 HBC          1.8290    -1.6480     0.6260 h1         1 WH6       0.085700
     41 HAQ          1.0690    -3.5770    -1.6030 hc         1 WH6       0.026700
     42 HAQA         2.3840    -3.7180    -0.4660 hc         1 WH6       0.026700
     43 HAP         -2.3440     1.2250     2.0070 ha         1 WH6       0.164000
     44 HAK         -5.0250     0.8750    -1.3120 ha         1 WH6       0.140000
     45 HAO         -3.4010    -0.5530    -2.5340 ha         1 WH6       0.121000
@<TRIPOS>BOND
     1     1     2 ar  
     2     1     6 ar  
     3     1    10 ar  
     4     2     3 ar  
     5     2    31 1   
     6     3     4 ar  
     7     3    32 1   
     8     4     5 ar  
     9     4    33 1   
    10     5     6 ar  
    11     5    34 1   
    12     6     7 ar  
    13     7     8 ar  
    14     7    35 1   
    15     8     9 ar  
    16     8    36 1   
    17     9    10 ar  
    18     9    37 1   
    19    10    11 1   
    20    11    12 1   
    21    11    38 1   
    22    11    39 1   
    23    12    13 1   
    24    12    17 1   
    25    12    40 1   
    26    13    14 1   
    27    13    41 1   
    28    13    42 1   
    29    14    15 1   
    30    14    16 1   
    31    17    18 1   
    32    17    29 1   
    33    18    19 2   
    34    18    20 1   
    35    20    21 ar  
    36    20    28 ar  
    37    21    22 ar  
    38    21    43 1   
    39    22    23 1   
    40    22    26 ar  
    41    23    24 1   
    42    23    25 1   
    43    26    27 ar  
    44    26    44 1   
    45    27    28 ar  
    46    27    45 1   
    47    28    29 1   
    48    29    30 2   
@<TRIPOS>SUBSTRUCTURE
     1 WH6         1 TEMP              0 ****  ****    0 ROOT
