@<TRIPOS>MOLECULE
WH6
   45    48     1     0     0
SMALL
No Charge or Current Charge


@<TRIPOS>ATOM
      1 CAZ          3.1620     0.9840    -0.2200 ca         1 WH6      -0.021000
      2 CAN          3.9360     0.2460     0.7080 ca         1 WH6      -0.069000
      3 CAH          4.6490     0.9000     1.7270 ca         1 WH6      -0.128000
      4 CAG          4.6030     2.2970     1.8360 ca         1 WH6      -0.115000
      5 CAL          3.8440     3.0440     0.9230 ca         1 WH6      -0.108000
      6 CAY          3.1260     2.3970    -0.1010 ca         1 WH6      -0.030000
      7 CAM          2.3730     3.1670    -1.0040 ca         1 WH6      -0.121000
      8 CAI          1.6510     2.5430    -2.0300 ca         1 WH6      -0.094000
      9 CAJ          1.6790     1.1470    -2.1560 ca         1 WH6      -0.116000
     10 CAV          2.4240     0.3530    -1.2600 ca         1 WH6      -0.038300
     11 CAR          2.3730    -1.1680    -1.4380 c3         1 WH6      -0.064100
     12 CBC          1.4150    -1.8550    -0.4300 c3         1 WH6       0.145700
     13 CAQ          1.3710    -3.3980    -0.5540 c3         1 WH6      -0.220400
     14 CAS          0.6490    -3.9990     0.6570 c          1 WH6       0.720000
     15 OAE          1.3080    -4.2300     1.6580 o          1 WH6      -0.733000
     16 OAA         -0.5550    -4.1890     0.5790 o          1 WH6      -0.733000
     17 N1           0.0800    -1.2180    -0.3920 n          1 WH6      -0.362400
     18 CAX         -0.3980    -0.5210     0.7200 c          1 WH6       0.605600
     19 OAD          0.1670    -0.3530     1.7920 o          1 WH6      -0.503000
     20 CBB         -1.7420    -0.0170     0.3190 ca         1 WH6      -0.162600
     21 CAP         -2.6680     0.7450     1.0430 ca         1 WH6      -0.023000
     22 CAU         -3.8910     1.1020     0.4160 ca         1 WH6      -0.139600
     23 CAT         -4.9210     1.9280     1.1670 c          1 WH6       0.715600
     24 OAF         -5.9640     2.2220     0.6000 o          1 WH6      -0.725000
     25 OAB         -4.6720     2.2700     2.3140 o          1 WH6      -0.725000
     26 CAK         -4.1340     0.6760    -0.9230 ca         1 WH6      -0.095000
     27 CAO         -3.1850    -0.0910    -1.6320 ca         1 WH6      -0.087000
     28 CBA         -1.9910    -0.4250    -0.9820 ca         1 WH6      -0.165600
     29 CAW         -0.8150    -1.2060    -1.4670 c          1 WH6       0.598600
     30 OAC         -0.6660    -1.7070    -2.5730 o          1 WH6      -0.547000
     31 HAN          4.0020    -0.8360     0.6560 ha         1 WH6       0.123000
     32 HAH          5.2390     0.3210     2.4330 ha         1 WH6       0.100000
     33 HAG          5.1560     2.8010     2.6250 ha         1 WH6       0.093000
     34 HAL          3.8140     4.1270     1.0120 ha         1 WH6       0.097000
     35 HAM          2.3450     4.2500    -0.9110 ha         1 WH6       0.098000
     36 HAI          1.0680     3.1410    -2.7260 ha         1 WH6       0.104000
     37 HAJ          1.1070     0.6790    -2.9540 ha         1 WH6       0.121000
     38 HAR          2.0490    -1.4170    -2.4560 hc         1 WH6       0.047200
     39 HARA         3.3760    -1.6000    -1.3510 hc         1 WH6       0.047200
     40 HBC          1.8690    -1.6710     0.5530 h1         1 WH6       0.085700
     41 HAQ          0.8400    -3.6310    -1.4830 hc         1 WH6       0.026700
     42 HAQA         2.4190    -3.7210    -0.5570 hc         1 WH6       0.026700
     43 HAP         -2.4440     1.0520     2.0630 ha         1 WH6       0.146000
     44 HAK         -5.0650     0.9400    -1.4200 ha         1 WH6       0.122000
     45 HAO         -3.3750    -0.4120    -2.6540 ha         1 WH6       0.103000
@<TRIPOS>BOND
     1     1     2 ar  
     2     1     6 ar  
     3     1    10 ar  
     4     2     3 ar  
     5     2    31 1   
     6     3     4 ar  
     7     3    32 1   
     8     4     5 ar  
     9     4    33 1   
    10     5     6 ar  
    11     5    34 1   
    12     6     7 ar  
    13     7     8 ar  
    14     7    35 1   
    15     8     9 ar  
    16     8    36 1   
    17     9    10 ar  
    18     9    37 1   
    19    10    11 1   
    20    11    12 1   
    21    11    38 1   
    22    11    39 1   
    23    12    13 1   
    24    12    17 1   
    25    12    40 1   
    26    13    14 1   
    27    13    41 1   
    28    13    42 1   
    29    14    15 1   
    30    14    16 1   
    31    17    18 1   
    32    17    29 1   
    33    18    19 2   
    34    18    20 1   
    35    20    21 ar  
    36    20    28 ar  
    37    21    22 ar  
    38    21    43 1   
    39    22    23 1   
    40    22    26 ar  
    41    23    24 1   
    42    23    25 1   
    43    26    27 ar  
    44    26    44 1   
    45    27    28 ar  
    46    27    45 1   
    47    28    29 1   
    48    29    30 2   
@<TRIPOS>SUBSTRUCTURE
     1 WH6         1 TEMP              0 ****  ****    0 ROOT
