@<TRIPOS>MOLECULE
WH7
   27    27     1     0     0
SMALL
bcc


@<TRIPOS>ATOM
      1 C4           9.7600   -12.6550    -5.0600 ca         1 WH7      -0.058300
      2 C5           9.1680   -13.0070    -3.8480 ca         1 WH7       0.041900
      3 C6           7.8100   -12.8470    -3.6080 ca         1 WH7      -0.122000
      4 C7           6.9990   -12.3330    -4.6050 ca         1 WH7      -0.111000
      5 C8           7.5410   -11.9620    -5.8250 ca         1 WH7      -0.122000
      6 N           11.3560   -14.0470    -6.2520 n7         1 WH7      -0.810200
      7 C           13.5450   -12.2620    -7.7460 c3         1 WH7      -0.089100
      8 O           12.4980   -13.9970    -8.9730 oh         1 WH7      -0.598800
      9 C1          13.3180   -13.7610    -7.8430 c3         1 WH7       0.113100
     10 C2          12.7230   -14.4040    -6.5890 c3         1 WH7       0.127800
     11 C3          11.2040   -12.8880    -5.3910 c3         1 WH7       0.211100
     12 C9           8.9010   -12.1220    -6.0250 ca         1 WH7       0.041900
     13 CL          10.1230   -13.6910    -2.5710 cl         1 WH7      -0.104400
     14 CL1          9.5580   -11.5810    -7.5400 cl         1 WH7      -0.104400
     15 H10          7.3900   -13.1330    -2.6550 ha         1 WH7       0.151500
     16 H11          5.9390   -12.2180    -4.4290 ha         1 WH7       0.141000
     17 H12          6.9170   -11.5520    -6.6070 ha         1 WH7       0.151500
     18 H13         10.8370   -13.9330    -7.1150 hn         1 WH7       0.372800
     19 H3          14.1970   -11.9130    -8.5480 hc         1 WH7       0.044367
     20 H1          12.6060   -11.7060    -7.8140 hc         1 WH7       0.044367
     21 H4          12.3510   -14.9460    -9.0480 ho         1 WH7       0.404000
     22 H           14.3030   -14.2320    -7.9850 h1         1 WH7       0.028700
     23 H5          12.7760   -15.4920    -6.7310 h1         1 WH7       0.052700
     24 H6          13.3550   -14.1880    -5.7230 h1         1 WH7       0.052700
     25 H8          11.7430   -13.1110    -4.4690 h1         1 WH7       0.048200
     26 H9          11.6550   -11.9600    -5.7640 h1         1 WH7       0.048200
     27 H2          14.0190   -12.0040    -6.7990 hc         1 WH7       0.044367
@<TRIPOS>BOND
     1     1     2 ar  
     2     1    11 1   
     3     1    12 ar  
     4     2     3 ar  
     5     2    13 1   
     6     3     4 ar  
     7     3    15 1   
     8     4     5 ar  
     9     4    16 1   
    10     5    12 ar  
    11     5    17 1   
    12     6    10 1   
    13     6    11 1   
    14     6    18 1   
    15     7     9 1   
    16     7    19 1   
    17     7    20 1   
    18     7    27 1   
    19     8     9 1   
    20     8    21 1   
    21     9    10 1   
    22     9    22 1   
    23    10    23 1   
    24    10    24 1   
    25    11    25 1   
    26    11    26 1   
    27    12    14 1   
@<TRIPOS>SUBSTRUCTURE
     1 WH7         1 TEMP              0 ****  ****    0 ROOT
