@<TRIPOS>MOLECULE
WH7
   27    27     1     0     0
SMALL
No Charge or Current Charge


@<TRIPOS>ATOM
      1 C4           9.7040   -12.6640    -5.0710 ca         1 WH7      -0.058300
      2 C5           9.0990   -13.1590    -3.8900 ca         1 WH7       0.133500
      3 C6           7.7240   -12.9770    -3.6630 ca         1 WH7      -0.104000
      4 C7           6.9310   -12.3050    -4.6060 ca         1 WH7      -0.093000
      5 C8           7.5180   -11.8150    -5.7820 ca         1 WH7      -0.104000
      6 N           11.4440   -14.0450    -6.1630 n7         1 WH7      -0.865400
      7 C           13.5710   -12.2840    -7.8660 c3         1 WH7      -0.089100
      8 O           12.3480   -14.1220    -8.8650 oh         1 WH7      -0.661000
      9 C1          13.3200   -13.8060    -7.8530 c3         1 WH7       0.136300
     10 C2          12.8600   -14.3670    -6.4680 c3         1 WH7       0.127800
     11 C3          11.2000   -12.8500    -5.3280 c3         1 WH7       0.211100
     12 C9           8.8920   -11.9920    -6.0170 ca         1 WH7       0.133500
     13 Cl          10.0270   -14.0220    -2.6600 cl         1 WH7      -0.196000
     14 Cl1          9.5610   -11.3600    -7.5240 cl         1 WH7      -0.196000
     15 H10          7.2710   -13.3610    -2.7520 ha         1 WH7       0.133500
     16 H11          5.8670   -12.1660    -4.4270 ha         1 WH7       0.123000
     17 H12          6.9070   -11.2970    -6.5170 ha         1 WH7       0.133500
     18 H13         10.9750   -13.9090    -7.0700 hn         1 WH7       0.428000
     19 H3          14.0390   -11.9850    -8.8120 hc         1 WH7       0.044367
     20 H1          12.6370   -11.7220    -7.7640 hc         1 WH7       0.044367
     21 H4          12.3340   -15.1010    -8.9540 ho         1 WH7       0.443000
     22 H           14.2750   -14.2900    -8.0960 h1         1 WH7       0.028700
     23 H5          12.9770   -15.4580    -6.5090 h1         1 WH7       0.052700
     24 H6          13.5350   -14.0120    -5.6760 h1         1 WH7       0.052700
     25 H8          11.7350   -12.9370    -4.3740 h1         1 WH7       0.048200
     26 H9          11.5970   -11.9460    -5.8060 h1         1 WH7       0.048200
     27 H2          14.2440   -11.9950    -7.0500 hc         1 WH7       0.044367
@<TRIPOS>BOND
     1     1     2 ar  
     2     1    11 1   
     3     1    12 ar  
     4     2     3 ar  
     5     2    13 1   
     6     3     4 ar  
     7     3    15 1   
     8     4     5 ar  
     9     4    16 1   
    10     5    12 ar  
    11     5    17 1   
    12     6    10 1   
    13     6    11 1   
    14     6    18 1   
    15     7     9 1   
    16     7    19 1   
    17     7    20 1   
    18     7    27 1   
    19     8     9 1   
    20     8    21 1   
    21     9    10 1   
    22     9    22 1   
    23    10    23 1   
    24    10    24 1   
    25    11    25 1   
    26    11    26 1   
    27    12    14 1   
@<TRIPOS>SUBSTRUCTURE
     1 WH7         1 TEMP              0 ****  ****    0 ROOT
