@<TRIPOS>MOLECULE
WH9
   44    47     1     0     0
SMALL
No Charge or Current Charge


@<TRIPOS>ATOM
      1 C01         95.0640   108.4480   118.8720 ca         1 WH9      -0.101000
      2 C02         94.5100   109.3700   119.7860 ca         1 WH9       0.123000
      3 C03         96.2930   107.8750   119.2060 ca         1 WH9       0.011600
      4 C04         95.2120   109.7150   120.9750 ca         1 WH9       0.121000
      5 C05         96.9550   108.1500   120.3920 ca         1 WH9       0.021600
      6 C06         96.4620   109.1260   121.2710 ca         1 WH9      -0.098000
      7 C07         98.3100   106.7560   119.1140 c          1 WH9       0.593000
      8 C08         99.1890   107.3330   121.4340 c6         1 WH9       0.127700
      9 C09         99.9500   108.6460   121.7320 c6         1 WH9      -0.089400
     10 C10         98.5400   106.7670   122.7210 c6         1 WH9      -0.089400
     11 C11        100.9590   108.4410   122.8830 c6         1 WH9       0.170800
     12 C12         99.5950   106.6180   123.8390 c6         1 WH9       0.170800
     13 C14        103.5930   107.3690   124.6460 ca         1 WH9      -0.093000
     14 C15        102.2480   105.5730   125.5880 ca         1 WH9      -0.093000
     15 C16        103.3410   104.6960   125.4750 ca         1 WH9      -0.102000
     16 C17        104.6850   106.4910   124.5330 ca         1 WH9      -0.102000
     17 C18        102.3640   106.9140   125.1670 ca         1 WH9      -0.125300
     18 C19        104.5570   105.1560   124.9460 ca         1 WH9       0.128000
     19 N01         97.1310   107.0260   118.4820 ns         1 WH9      -0.501600
     20 N02         98.2250   107.4810   120.3170 n          1 WH9      -0.296000
     21 N03        100.2880   107.9090   124.1030 n3         1 WH9      -0.734600
     22 O01         99.2090   106.0330   118.7210 o          1 WH9      -0.556000
     23 Cl1        105.9250   104.0580   124.8040 cl         1 WH9      -0.211000
     24 Cl2         94.5550   110.9080   122.0960 cl         1 WH9      -0.176000
     25 Cl3         92.9580   110.1160   119.4020 cl         1 WH9      -0.176000
     26 H1          94.5620   108.2120   117.9380 ha         1 WH9       0.141000
     27 H2          97.0050   109.4220   122.1630 ha         1 WH9       0.147000
     28 H3          99.9450   106.5980   121.1180 h1         1 WH9       0.086700
     29 H4         100.4820   108.9820   120.8320 hc         1 WH9       0.058200
     30 H5          99.2540   109.4490   122.0010 hc         1 WH9       0.058200
     31 H6          97.7360   107.4220   123.0760 hc         1 WH9       0.058200
     32 H7          98.0830   105.7910   122.5120 hc         1 WH9       0.058200
     33 H8         101.7460   107.7490   122.5470 h1         1 WH9       0.039700
     34 H9         101.4450   109.4030   123.1020 h1         1 WH9       0.039700
     35 H10         99.0950   106.2590   124.7510 h1         1 WH9       0.039700
     36 H11        100.3210   105.8460   123.5420 h1         1 WH9       0.039700
     37 H12        101.5620   108.8780   125.5000 h1         1 WH9       0.061200
     38 H13        100.5920   107.5830   126.1800 h1         1 WH9       0.061200
     39 H15        101.3090   105.2090   126.0000 ha         1 WH9       0.116000
     40 H16        103.2460   103.6620   125.7970 ha         1 WH9       0.131000
     41 H17        105.6300   106.8450   124.1270 ha         1 WH9       0.131000
     42 H18         96.9050   106.6330   117.5740 hn         1 WH9       0.473000
     43 C13        101.1770   107.8700   125.2940 c3         1 WH9       0.222100
     44 H14        103.7010   108.4040   124.3250 ha         1 WH9       0.116000
@<TRIPOS>BOND
     1     1     2 ar  
     2     1     3 ar  
     3     1    26 1   
     4     2     4 ar  
     5     2    25 1   
     6     3     5 ar  
     7     3    19 1   
     8     4     6 ar  
     9     4    24 1   
    10     5     6 ar  
    11     5    20 1   
    12     6    27 1   
    13     7    19 1   
    14     7    20 1   
    15     7    22 2   
    16     8     9 1   
    17     8    10 1   
    18     8    20 1   
    19     8    28 1   
    20     9    11 1   
    21     9    29 1   
    22     9    30 1   
    23    10    12 1   
    24    10    31 1   
    25    10    32 1   
    26    11    21 1   
    27    11    33 1   
    28    11    34 1   
    29    12    21 1   
    30    12    35 1   
    31    12    36 1   
    32    13    16 ar  
    33    13    17 ar  
    34    13    44 1   
    35    14    15 ar  
    36    14    17 ar  
    37    14    39 1   
    38    15    18 ar  
    39    15    40 1   
    40    16    18 ar  
    41    16    41 1   
    42    17    43 1   
    43    18    23 1   
    44    19    42 1   
    45    21    43 1   
    46    37    43 1   
    47    38    43 1   
@<TRIPOS>SUBSTRUCTURE
     1 WH9         1 TEMP              0 ****  ****    0 ROOT
