@<TRIPOS>MOLECULE
WH9
   44    47     1     0     0
SMALL
abcg2


@<TRIPOS>ATOM
      1 C01         95.1740   108.6300   118.8440 ca         1 WH9      -0.101000
      2 C02         94.6670   109.5440   119.7680 ca         1 WH9       0.123000
      3 C03         96.3390   107.9690   119.1710 ca         1 WH9       0.011600
      4 C04         95.3200   109.7740   120.9800 ca         1 WH9       0.121000
      5 C05         97.0040   108.1960   120.3920 ca         1 WH9       0.021600
      6 C06         96.4980   109.1000   121.3080 ca         1 WH9      -0.098000
      7 C07         98.1830   106.6460   119.2220 c          1 WH9       0.593000
      8 C08         99.1290   107.2350   121.4570 c6         1 WH9       0.127700
      9 C09         99.8860   108.5350   121.7270 c6         1 WH9      -0.089400
     10 C10         98.5310   106.6630   122.7410 c6         1 WH9      -0.089400
     11 C11        100.9090   108.3190   122.8380 c6         1 WH9       0.170800
     12 C12         99.6150   106.5280   123.8060 c6         1 WH9       0.170800
     13 C14        103.5590   107.4500   124.6790 ca         1 WH9      -0.093000
     14 C15        102.2950   105.6160   125.5610 ca         1 WH9      -0.093000
     15 C16        103.4050   104.7860   125.4570 ca         1 WH9      -0.102000
     16 C17        104.6820   106.6390   124.5680 ca         1 WH9      -0.102000
     17 C18        102.3500   106.9540   125.1690 ca         1 WH9      -0.125300
     18 C19        104.5890   105.3100   124.9560 ca         1 WH9       0.128000
     19 N01         97.0770   107.0230   118.4890 ns         1 WH9      -0.501600
     20 N02         98.1290   107.3820   120.4020 n          1 WH9      -0.296000
     21 N03        100.2600   107.8150   124.0440 n3         1 WH9      -0.734600
     22 O01         99.0360   105.8300   118.9020 o          1 WH9      -0.556000
     23 CL1        105.9980   104.2740   124.8220 cl         1 WH9      -0.211000
     24 CL2         94.6870   110.9130   122.1360 cl         1 WH9      -0.176000
     25 CL3         93.1980   110.3900   119.3650 cl         1 WH9      -0.176000
     26 H1          94.6640   108.4550   117.9070 ha         1 WH9       0.141000
     27 H2          96.9750   109.2990   122.2540 ha         1 WH9       0.147000
     28 H3          99.8380   106.5070   121.0580 h1         1 WH9       0.086700
     29 H4         100.3900   108.8640   120.8170 hc         1 WH9       0.058200
     30 H5          99.1950   109.3230   122.0280 hc         1 WH9       0.058200
     31 H6          97.7400   107.3150   123.1160 hc         1 WH9       0.058200
     32 H7          98.0890   105.6860   122.5350 hc         1 WH9       0.058200
     33 H8         101.6910   107.6290   122.4770 h1         1 WH9       0.039700
     34 H9         101.4010   109.2640   123.0770 h1         1 WH9       0.039700
     35 H10         99.1730   106.1840   124.7430 h1         1 WH9       0.039700
     36 H11        100.3400   105.7610   123.4870 h1         1 WH9       0.039700
     37 H12        101.4270   108.8710   125.3950 h1         1 WH9       0.061200
     38 H13        100.5030   107.5340   126.0820 h1         1 WH9       0.061200
     39 H15        101.3730   105.2120   125.9600 ha         1 WH9       0.116000
     40 H16        103.3530   103.7510   125.7640 ha         1 WH9       0.131000
     41 H17        105.6150   107.0340   124.1910 ha         1 WH9       0.131000
     42 H18         96.8760   106.6550   117.5730 hn         1 WH9       0.473000
     43 C13        101.1190   107.8360   125.2330 c3         1 WH9       0.222100
     44 H14        103.6300   108.4890   124.3820 ha         1 WH9       0.116000
@<TRIPOS>BOND
     1     1     2 ar  
     2     1     3 ar  
     3     1    26 1   
     4     2     4 ar  
     5     2    25 1   
     6     3     5 ar  
     7     3    19 1   
     8     4     6 ar  
     9     4    24 1   
    10     5     6 ar  
    11     5    20 1   
    12     6    27 1   
    13     7    19 1   
    14     7    20 1   
    15     7    22 2   
    16     8     9 1   
    17     8    10 1   
    18     8    20 1   
    19     8    28 1   
    20     9    11 1   
    21     9    29 1   
    22     9    30 1   
    23    10    12 1   
    24    10    31 1   
    25    10    32 1   
    26    11    21 1   
    27    11    33 1   
    28    11    34 1   
    29    12    21 1   
    30    12    35 1   
    31    12    36 1   
    32    13    16 ar  
    33    13    17 ar  
    34    13    44 1   
    35    14    15 ar  
    36    14    17 ar  
    37    14    39 1   
    38    15    18 ar  
    39    15    40 1   
    40    16    18 ar  
    41    16    41 1   
    42    17    43 1   
    43    18    23 1   
    44    19    42 1   
    45    21    43 1   
    46    37    43 1   
    47    38    43 1   
@<TRIPOS>SUBSTRUCTURE
     1 WH9         1 TEMP              0 ****  ****    0 ROOT
