@<TRIPOS>MOLECULE
WHA
   46    49     1     0     0
SMALL
No Charge or Current Charge


@<TRIPOS>ATOM
      1 C4           4.6220    -2.1070    -0.4540 ca         1 WHA      -0.103300
      2 C14          2.0190     0.5490     0.0910 cp         1 WHA      -0.112500
      3 C5           3.9240    -3.0050    -1.2790 ca         1 WHA      -0.095000
      4 C6           2.6020    -2.7280    -1.6570 ca         1 WHA      -0.100000
      5 C11          4.0870     1.1400     1.2750 ca         1 WHA      -0.099000
      6 C7           1.9690    -1.5570    -1.2090 ca         1 WHA      -0.087000
      7 C8           2.6490    -0.6440    -0.3700 ca         1 WHA       0.004000
      8 C9           3.9870    -0.9290    -0.0010 ca         1 WHA      -0.026000
      9 C10          4.7050    -0.0360     0.8210 ca         1 WHA      -0.085300
     10 C12          2.7630     1.4310     0.9170 ca         1 WHA       0.156000
     11 C3           6.0670    -2.4110    -0.0430 c6         1 WHA       0.197900
     12 C1           6.1500    -0.3480     1.2250 c6         1 WHA       0.197900
     13 O2           6.7670    -1.1760     0.2160 os         1 WHA      -0.434000
     14 Cl1          2.0460     2.9120     1.5540 cl         1 WHA      -0.189000
     15 C15          0.6080     0.8800    -0.2620 cp         1 WHA       0.254500
     16 N16         -0.3740     0.1680     0.3290 nb         1 WHA      -0.223000
     17 N17          0.3930     1.8700    -1.1510 nb         1 WHA      -0.272000
     18 C18         -0.8940     2.1150    -1.4190 ca         1 WHA       0.417900
     19 N19         -1.1610     3.0980    -2.3070 nv         1 WHA      -1.060900
     20 N22         -1.9480     1.4760    -0.8980 nb         1 WHA      -0.310000
     21 C23         -1.6350     0.5000    -0.0190 ca         1 WHA       0.283300
     22 S24         -2.9580    -0.4300     0.7480 ss         1 WHA      -0.276300
     23 C25         -4.5020     0.3150     0.0550 c3         1 WHA       0.031600
     24 C26         -5.7450    -0.3890     0.6330 c3         1 WHA      -0.058400
     25 C27         -7.0730     0.1910     0.0900 c3         1 WHA      -0.159400
     26 C28         -8.2830    -0.5330     0.6890 c          1 WHA       0.604100
     27 O29         -8.7530    -0.2610     1.7800 o          1 WHA      -0.601100
     28 N30         -8.8220    -1.5140    -0.0640 nt         1 WHA      -0.612000
     29 H1           4.4050    -3.9150    -1.6300 ha         1 WHA       0.115000
     30 H2           2.0660    -3.4220    -2.3000 ha         1 WHA       0.116000
     31 H3           4.6310     1.8310     1.9140 ha         1 WHA       0.132000
     32 H4           0.9470    -1.3710    -1.5280 ha         1 WHA       0.121000
     33 H5           6.0770    -3.0360     0.8620 h1         1 WHA       0.057200
     34 H6           6.5860    -2.9540    -0.8460 h1         1 WHA       0.057200
     35 H7           6.7270     0.5810     1.3260 h1         1 WHA       0.059200
     36 H8           6.1650    -0.8740     2.1910 h1         1 WHA       0.059200
     37 H9          -0.4000     3.4390    -2.8900 hn         1 WHA       0.510000
     38 H10         -2.0960     3.1520    -2.7040 hn         1 WHA       0.510000
     39 H11         -4.5300     1.3840     0.3060 h1         1 WHA       0.072700
     40 H12         -4.4910     0.2130    -1.0390 h1         1 WHA       0.072700
     41 H13         -5.6920    -1.4600     0.3990 hc         1 WHA       0.068700
     42 H14         -5.7300    -0.3000     1.7270 hc         1 WHA       0.068700
     43 H15         -7.1260     1.2550     0.3510 hc         1 WHA       0.056200
     44 H16         -7.0700     0.0650    -0.9990 hc         1 WHA       0.056200
     45 H17         -8.4270    -1.7350    -0.9660 hn         1 WHA       0.313000
     46 H18         -9.6210    -2.0220     0.2850 hn         1 WHA       0.313000
@<TRIPOS>BOND
     1     1     3 ar  
     2     1     8 ar  
     3     1    11 1   
     4     2     7 ar  
     5     2    10 ar  
     6     2    15 1   
     7     3     4 ar  
     8     3    29 1   
     9     4     6 ar  
    10     4    30 1   
    11     5     9 ar  
    12     5    10 ar  
    13     5    31 1   
    14     6     7 ar  
    15     6    32 1   
    16     7     8 ar  
    17     8     9 ar  
    18     9    12 1   
    19    10    14 1   
    20    11    13 1   
    21    11    33 1   
    22    11    34 1   
    23    12    13 1   
    24    12    35 1   
    25    12    36 1   
    26    15    16 ar  
    27    15    17 ar  
    28    16    21 ar  
    29    17    18 ar  
    30    18    19 1   
    31    18    20 ar  
    32    19    37 1   
    33    19    38 1   
    34    20    21 ar  
    35    21    22 1   
    36    22    23 1   
    37    23    24 1   
    38    23    39 1   
    39    23    40 1   
    40    24    25 1   
    41    24    41 1   
    42    24    42 1   
    43    25    26 1   
    44    25    43 1   
    45    25    44 1   
    46    26    27 2   
    47    26    28 1   
    48    28    45 1   
    49    28    46 1   
@<TRIPOS>SUBSTRUCTURE
     1 WHA         1 TEMP              0 ****  ****    0 ROOT
