@<TRIPOS>MOLECULE
WHA
   46    49     1     0     0
SMALL
abcg2


@<TRIPOS>ATOM
      1 C4           4.6470    -2.0270    -0.4730 ca         1 WHA      -0.103300
      2 C14          1.9650     0.5170     0.1090 cp         1 WHA      -0.112500
      3 C5           4.0050    -2.9010    -1.3090 ca         1 WHA      -0.095000
      4 C6           2.6720    -2.6650    -1.6960 ca         1 WHA      -0.100000
      5 C11          3.9740     1.1270     1.3350 ca         1 WHA      -0.099000
      6 C7           1.9950    -1.5620    -1.2520 ca         1 WHA      -0.087000
      7 C8           2.6260    -0.6370    -0.3870 ca         1 WHA       0.004000
      8 C9           3.9670    -0.8790    -0.0010 ca         1 WHA      -0.026000
      9 C10          4.6290     0.0230     0.8680 ca         1 WHA      -0.085300
     10 C12          2.6410     1.3600     0.9490 ca         1 WHA       0.156000
     11 C3           6.0620    -2.2420    -0.0120 c6         1 WHA       0.197900
     12 C1           6.0470    -0.2890     1.2600 c6         1 WHA       0.197900
     13 O2           6.7070    -1.0200     0.2580 os         1 WHA      -0.434000
     14 CL1          1.8500     2.7650     1.5800 cl         1 WHA      -0.189000
     15 C15          0.5590     0.7980    -0.2800 cp         1 WHA       0.254500
     16 N16         -0.3840     0.1330     0.3700 nb         1 WHA      -0.223000
     17 N17          0.3700     1.6740    -1.2450 nb         1 WHA      -0.272000
     18 C18         -0.9160     1.8970    -1.5590 ca         1 WHA       0.417900
     19 N19         -1.1800     2.7730    -2.5200 nv         1 WHA      -1.060900
     20 N22         -1.9530     1.2910    -0.9610 nb         1 WHA      -0.310000
     21 C23         -1.6240     0.4310    -0.0250 ca         1 WHA       0.283300
     22 S24         -2.8620    -0.4470     0.8300 ss         1 WHA      -0.276300
     23 C25         -4.3920     0.1810     0.0820 c3         1 WHA       0.031600
     24 C26         -5.5720    -0.5450     0.7140 c3         1 WHA      -0.058400
     25 C27         -6.8790    -0.0260     0.1310 c3         1 WHA      -0.159400
     26 C28         -8.0990    -0.7000     0.7260 c          1 WHA       0.604100
     27 O29         -8.1080    -1.1490     1.8630 o          1 WHA      -0.601100
     28 N30         -9.1690    -0.7400    -0.0820 nt         1 WHA      -0.612000
     29 H1           4.5230    -3.7760    -1.6820 ha         1 WHA       0.115000
     30 H2           2.1810    -3.3640    -2.3600 ha         1 WHA       0.116000
     31 H3           4.4710     1.8260     1.9950 ha         1 WHA       0.132000
     32 H4           0.9730    -1.4030    -1.5690 ha         1 WHA       0.121000
     33 H5           6.0630    -2.8850     0.8810 h1         1 WHA       0.057200
     34 H6           6.6420    -2.7550    -0.7810 h1         1 WHA       0.057200
     35 H7           6.6110     0.6310     1.4200 h1         1 WHA       0.059200
     36 H8           6.0470    -0.8430     2.2110 h1         1 WHA       0.059200
     37 H9          -0.4330     3.2310    -3.0130 hn         1 WHA       0.510000
     38 H10         -2.1280     2.9410    -2.8120 hn         1 WHA       0.510000
     39 H11         -4.4560     1.2550     0.2540 h1         1 WHA       0.072700
     40 H12         -4.3570     0.0100    -0.9930 h1         1 WHA       0.072700
     41 H13         -5.4850    -1.6190     0.5360 hc         1 WHA       0.068700
     42 H14         -5.5670    -0.3980     1.7960 hc         1 WHA       0.068700
     43 H15         -6.9690     1.0480     0.3260 hc         1 WHA       0.056200
     44 H16         -6.8780    -0.1340    -0.9570 hc         1 WHA       0.056200
     45 H17         -9.1410    -0.3710    -1.0170 hn         1 WHA       0.313000
     46 H18        -10.0410    -1.1270     0.2390 hn         1 WHA       0.313000
@<TRIPOS>BOND
     1     1     3 ar  
     2     1     8 ar  
     3     1    11 1   
     4     2     7 ar  
     5     2    10 ar  
     6     2    15 1   
     7     3     4 ar  
     8     3    29 1   
     9     4     6 ar  
    10     4    30 1   
    11     5     9 ar  
    12     5    10 ar  
    13     5    31 1   
    14     6     7 ar  
    15     6    32 1   
    16     7     8 ar  
    17     8     9 ar  
    18     9    12 1   
    19    10    14 1   
    20    11    13 1   
    21    11    33 1   
    22    11    34 1   
    23    12    13 1   
    24    12    35 1   
    25    12    36 1   
    26    15    16 ar  
    27    15    17 ar  
    28    16    21 ar  
    29    17    18 ar  
    30    18    19 1   
    31    18    20 ar  
    32    19    37 1   
    33    19    38 1   
    34    20    21 ar  
    35    21    22 1   
    36    22    23 1   
    37    23    24 1   
    38    23    39 1   
    39    23    40 1   
    40    24    25 1   
    41    24    41 1   
    42    24    42 1   
    43    25    26 1   
    44    25    43 1   
    45    25    44 1   
    46    26    27 2   
    47    26    28 1   
    48    28    45 1   
    49    28    46 1   
@<TRIPOS>SUBSTRUCTURE
     1 WHA         1 TEMP              0 ****  ****    0 ROOT
