@<TRIPOS>MOLECULE
WHB
   29    31     1     0     0
SMALL
No Charge or Current Charge


@<TRIPOS>ATOM
      1 C10          4.4700     6.3910    18.7090 c          1 WHB       0.614100
      2 C11          3.7460     7.4330    19.5840 c3         1 WHB      -0.104100
      3 C13          3.2940     6.0590    21.6920 cc         1 WHB      -0.103000
      4 C16          4.6030     7.9540    21.9470 cd         1 WHB      -0.249000
      5 N1           5.7670     6.6820    18.2300 n          1 WHB      -0.371800
      6 C2           6.4940     5.7360    17.3200 c5         1 WHB      -0.012300
      7 C3           6.6450     7.6910    18.8730 c5         1 WHB       0.138000
      8 C4           8.0150     7.4620    18.2220 cx         1 WHB      -0.190700
      9 C5           7.9230     6.3080    17.2660 cx         1 WHB      -0.084700
     10 C6           8.0420     7.7210    16.7310 cx         1 WHB      -0.108400
     11 C9           5.8470     5.5340    15.9020 c          1 WHB       0.739000
     12 C12          3.8980     7.1780    21.0620 cc         1 WHB      -0.076300
     13 C14          3.5300     5.9700    23.0380 cd         1 WHB      -0.251000
     14 S15          4.5400     7.3090    23.5960 ss         1 WHB       0.137000
     15 O17          3.9210     5.3320    18.4250 o          1 WHB      -0.600100
     16 O18          6.0620     4.4840    15.3080 o          1 WHB      -0.718000
     17 O19          5.1680     6.4240    15.4030 o          1 WHB      -0.718000
     18 H25          4.1350     8.4340    19.3710 hc         1 WHB       0.062700
     19 H26          2.6780     7.4090    19.3370 hc         1 WHB       0.062700
     20 H20          6.5100     4.7450    17.7910 h1         1 WHB       0.049700
     21 H22          6.2760     8.7100    18.6970 h1         1 WHB       0.024200
     22 H21          6.6820     7.5290    19.9580 h1         1 WHB       0.024200
     23 H7           8.9300     7.6200    18.7870 hc         1 WHB       0.065700
     24 H8           8.7760     5.6450    17.1400 hc         1 WHB       0.078700
     25 H24          7.1730     8.1850    16.2700 hc         1 WHB       0.076700
     26 H23          8.9910     8.0110    16.2880 hc         1 WHB       0.076700
     27 H28          3.1830     5.2150    23.7340 h4         1 WHB       0.141000
     28 H27          2.6960     5.3390    21.1380 ha         1 WHB       0.154000
     29 H29          5.1580     8.8620    21.7440 h4         1 WHB       0.143000
@<TRIPOS>BOND
     1     1     2 1   
     2     1     5 1   
     3     1    15 2   
     4     2    12 1   
     5     2    18 1   
     6     2    19 1   
     7     3    12 1   
     8     3    13 2   
     9     3    28 1   
    10     4    12 2   
    11     4    14 1   
    12     4    29 1   
    13     5     6 1   
    14     5     7 1   
    15     6     9 1   
    16     6    11 1   
    17     6    20 1   
    18     7     8 1   
    19     7    21 1   
    20     7    22 1   
    21     8     9 1   
    22     8    10 1   
    23     8    23 1   
    24     9    10 1   
    25     9    24 1   
    26    10    25 1   
    27    10    26 1   
    28    11    16 1   
    29    11    17 1   
    30    13    14 1   
    31    13    27 1   
@<TRIPOS>SUBSTRUCTURE
     1 WHB         1 TEMP              0 ****  ****    0 ROOT
