@<TRIPOS>MOLECULE
WHB
   29    31     1     0     0
SMALL
abcg2


@<TRIPOS>ATOM
      1 C10          4.4430     6.5420    18.6290 c          1 WHB       0.614100
      2 C11          3.7900     7.5750    19.5340 c3         1 WHB      -0.104100
      3 C13          3.3930     5.9860    21.5310 cc         1 WHB      -0.103000
      4 C16          4.6510     7.8880    21.9010 cd         1 WHB      -0.249000
      5 N1           5.7270     6.7380    18.2900 n          1 WHB      -0.371800
      6 C2           6.4300     5.7350    17.5000 c5         1 WHB      -0.012300
      7 C3           6.6000     7.7500    18.8820 c5         1 WHB       0.138000
      8 C4           7.9330     7.5320    18.2140 cx         1 WHB      -0.190700
      9 C5           7.8310     6.3010    17.3700 cx         1 WHB      -0.084700
     10 C6           7.9690     7.6450    16.7230 cx         1 WHB      -0.108400
     11 C9           5.8300     5.4700    16.0960 c          1 WHB       0.739000
     12 C12          3.9510     7.1760    20.9730 cc         1 WHB      -0.076300
     13 C14          3.6800     5.8360    22.8510 cd         1 WHB      -0.251000
     14 S15          4.6340     7.1320    23.4390 ss         1 WHB       0.137000
     15 O17          3.8140     5.5510    18.2760 o          1 WHB      -0.600100
     16 O18          6.1180     4.3550    15.6190 o          1 WHB      -0.718000
     17 O19          5.1970     6.3900    15.5520 o          1 WHB      -0.718000
     18 H25          4.1830     8.5790    19.3770 hc         1 WHB       0.062700
     19 H26          2.7290     7.6020    19.2770 hc         1 WHB       0.062700
     20 H20          6.4780     4.7910    18.0530 h1         1 WHB       0.049700
     21 H22          6.2140     8.7580    18.7120 h1         1 WHB       0.024200
     22 H21          6.6940     7.6110    19.9630 h1         1 WHB       0.024200
     23 H7           8.8240     7.7520    18.7880 hc         1 WHB       0.065700
     24 H8           8.6510     5.5990    17.3020 hc         1 WHB       0.078700
     25 H24          7.1120     8.0650    16.2100 hc         1 WHB       0.076700
     26 H23          8.9220     7.8810    16.2680 hc         1 WHB       0.076700
     27 H28          3.3810     5.0330    23.5080 h4         1 WHB       0.141000
     28 H27          2.8010     5.2790    20.9670 ha         1 WHB       0.154000
     29 H29          5.1710     8.8230    21.7560 h4         1 WHB       0.143000
@<TRIPOS>BOND
     1     1     2 1   
     2     1     5 1   
     3     1    15 2   
     4     2    12 1   
     5     2    18 1   
     6     2    19 1   
     7     3    12 1   
     8     3    13 2   
     9     3    28 1   
    10     4    12 2   
    11     4    14 1   
    12     4    29 1   
    13     5     6 1   
    14     5     7 1   
    15     6     9 1   
    16     6    11 1   
    17     6    20 1   
    18     7     8 1   
    19     7    21 1   
    20     7    22 1   
    21     8     9 1   
    22     8    10 1   
    23     8    23 1   
    24     9    10 1   
    25     9    24 1   
    26    10    25 1   
    27    10    26 1   
    28    11    16 1   
    29    11    17 1   
    30    13    14 1   
    31    13    27 1   
@<TRIPOS>SUBSTRUCTURE
     1 WHB         1 TEMP              0 ****  ****    0 ROOT
