@<TRIPOS>MOLECULE
WHD
   31    32     1     0     0
SMALL
No Charge or Current Charge


@<TRIPOS>ATOM
      1 N1          28.3220    -0.1340   -25.7720 n1         1 WHD      -0.453000
      2 C4          22.9970     7.2020   -25.8790 c3         1 WHD       0.210100
      3 C5          24.8110     5.7800   -26.8110 c3         1 WHD       0.202100
      4 C6          25.5800     4.4850   -26.5800 ca         1 WHD      -0.066300
      5 C7          26.8190     4.5000   -25.9090 ca         1 WHD      -0.104000
      6 C8          27.5280     3.3040   -25.6980 ca         1 WHD      -0.073500
      7 C10         27.7270     0.8570   -25.9410 cg         1 WHD       0.324000
      8 C13         20.7660     6.6120   -24.8150 ca         1 WHD      -0.070000
      9 N           23.7780     5.9590   -25.7760 n7         1 WHD      -0.866400
     10 C           20.1440     7.4610   -22.6230 ca         1 WHD       0.174000
     11 C1          21.3680     8.1410   -22.5330 ca         1 WHD      -0.154500
     12 C11         25.7640     2.0620   -26.8260 ca         1 WHD      -0.073500
     13 C12         25.0570     3.2590   -27.0360 ca         1 WHD      -0.104000
     14 C14         19.8400     6.6970   -23.7600 ca         1 WHD      -0.154500
     15 C2          22.2950     8.0570   -23.5880 ca         1 WHD      -0.070000
     16 C3          21.9980     7.2920   -24.7350 ca         1 WHD      -0.110300
     17 C9          27.0030     2.0800   -26.1560 ca         1 WHD      -0.019000
     18 H3          22.4540     7.2360   -26.8340 h1         1 WHD       0.038200
     19 H2          23.6600     8.0770   -25.8490 h1         1 WHD       0.038200
     20 H6          24.3530     5.7510   -27.8090 h1         1 WHD       0.041200
     21 H5          25.5160     6.6230   -26.8000 h1         1 WHD       0.041200
     22 H7          27.2330     5.4400   -25.5500 ha         1 WHD       0.126500
     23 H8          28.4840     3.3310   -25.1790 ha         1 WHD       0.126000
     24 H11         20.5300     6.0160   -25.6950 ha         1 WHD       0.121500
     25 H4          24.2440     5.9570   -24.8610 hn         1 WHD       0.419000
     26 H           21.5970     8.7300   -21.6490 ha         1 WHD       0.132500
     27 H9          25.3470     1.1220   -27.1830 ha         1 WHD       0.126000
     28 H10         24.0990     3.2350   -27.5510 ha         1 WHD       0.126500
     29 H12         18.8900     6.1710   -23.8210 ha         1 WHD       0.132500
     30 H1          23.2440     8.5860   -23.5140 ha         1 WHD       0.121500
     31 F           19.2550     7.5410   -21.6090 f          1 WHD      -0.179000
@<TRIPOS>BOND
     1     1     7 3   
     2     2     9 1   
     3     2    16 1   
     4     2    18 1   
     5     2    19 1   
     6     3     4 1   
     7     3     9 1   
     8     3    20 1   
     9     3    21 1   
    10     4     5 ar  
    11     4    13 ar  
    12     5     6 ar  
    13     5    22 1   
    14     6    17 ar  
    15     6    23 1   
    16     7    17 1   
    17     8    14 ar  
    18     8    16 ar  
    19     8    24 1   
    20     9    25 1   
    21    10    11 ar  
    22    10    14 ar  
    23    10    31 1   
    24    11    15 ar  
    25    11    26 1   
    26    12    13 ar  
    27    12    17 ar  
    28    12    27 1   
    29    13    28 1   
    30    14    29 1   
    31    15    16 ar  
    32    15    30 1   
@<TRIPOS>SUBSTRUCTURE
     1 WHD         1 TEMP              0 ****  ****    0 ROOT
