@<TRIPOS>MOLECULE
WHD
   31    32     1     0     0
SMALL
bcc


@<TRIPOS>ATOM
      1 N1          27.9470    -0.3320   -26.4780 n1         1 WHD      -0.363800
      2 C4          23.2650     7.2730   -25.5670 c3         1 WHD       0.210100
      3 C5          25.0930     5.9150   -26.3600 c3         1 WHD       0.202100
      4 C6          25.7140     4.5450   -26.3500 ca         1 WHD      -0.066300
      5 C7          27.0950     4.4000   -26.4580 ca         1 WHD      -0.122000
      6 C8          27.6800     3.1460   -26.4930 ca         1 WHD      -0.091500
      7 C10         27.4660     0.7150   -26.4480 cg         1 WHD       0.234800
      8 C13         21.1210     6.2940   -24.6830 ca         1 WHD      -0.088000
      9 N           23.9560     6.0020   -25.4700 n7         1 WHD      -0.811200
     10 C           19.8580     7.3930   -22.9900 ca         1 WHD       0.138900
     11 C1          20.7780     8.4180   -22.9250 ca         1 WHD      -0.172500
     12 C11         25.4880     2.1420   -26.2970 ca         1 WHD      -0.091500
     13 C12         24.9200     3.4020   -26.2640 ca         1 WHD      -0.122000
     14 C14         20.0090     6.3250   -23.8570 ca         1 WHD      -0.172500
     15 C2          21.8870     8.3650   -23.7620 ca         1 WHD      -0.088000
     16 C3          22.0720     7.3140   -24.6520 ca         1 WHD      -0.110300
     17 C9          26.8730     2.0120   -26.4140 ca         1 WHD      -0.019000
     18 H3          22.9320     7.3930   -26.6040 h1         1 WHD       0.038200
     19 H2          23.9160     8.1360   -25.3580 h1         1 WHD       0.038200
     20 H6          24.7410     6.1250   -27.3760 h1         1 WHD       0.041200
     21 H5          25.8700     6.6660   -26.1530 h1         1 WHD       0.041200
     22 H7          27.7250     5.2790   -26.5110 ha         1 WHD       0.144500
     23 H8          28.7530     3.0470   -26.5750 ha         1 WHD       0.144000
     24 H11         21.2540     5.4610   -25.3620 ha         1 WHD       0.139500
     25 H4          24.2660     5.8630   -24.5150 hn         1 WHD       0.363800
     26 H           20.6400     9.2390   -22.2340 ha         1 WHD       0.150500
     27 H9          24.8640     1.2610   -26.2320 ha         1 WHD       0.144000
     28 H10         23.8480     3.5040   -26.1670 ha         1 WHD       0.144500
     29 H12         19.2700     5.5350   -23.8870 ha         1 WHD       0.150500
     30 H1          22.6180     9.1630   -23.7130 ha         1 WHD       0.139500
     31 F           18.7820     7.4290   -22.1850 f          1 WHD      -0.143900
@<TRIPOS>BOND
     1     1     7 3   
     2     2     9 1   
     3     2    16 1   
     4     2    18 1   
     5     2    19 1   
     6     3     4 1   
     7     3     9 1   
     8     3    20 1   
     9     3    21 1   
    10     4     5 ar  
    11     4    13 ar  
    12     5     6 ar  
    13     5    22 1   
    14     6    17 ar  
    15     6    23 1   
    16     7    17 1   
    17     8    14 ar  
    18     8    16 ar  
    19     8    24 1   
    20     9    25 1   
    21    10    11 ar  
    22    10    14 ar  
    23    10    31 1   
    24    11    15 ar  
    25    11    26 1   
    26    12    13 ar  
    27    12    17 ar  
    28    12    27 1   
    29    13    28 1   
    30    14    29 1   
    31    15    16 ar  
    32    15    30 1   
@<TRIPOS>SUBSTRUCTURE
     1 WHD         1 TEMP              0 ****  ****    0 ROOT
