@<TRIPOS>MOLECULE
WHF
   24    25     1     0     0
SMALL
No Charge or Current Charge


@<TRIPOS>ATOM
      1 CAE         -4.1980    -0.7530    -0.1630 cc         1 WHF      -0.056000
      2 CAC         -5.1790     0.2680    -0.1830 cc         1 WHF      -0.147000
      3 CAD         -4.6610     1.5340    -0.0830 cd         1 WHF      -0.228000
      4 SAJ         -2.8930     1.4980     0.0440 ss         1 WHF       0.234000
      5 CAO         -2.9150    -0.2740    -0.0460 cd         1 WHF      -0.322600
      6 CAL         -1.7080    -1.1330    -0.0010 c          1 WHF       0.611700
      7 OAB         -1.7990    -2.3530    -0.0690 o          1 WHF      -0.517100
      8 CAF         -0.3370    -0.4490     0.1320 c3         1 WHF      -0.179400
      9 CAG          0.8960    -1.3930     0.1710 c3         1 WHF      -0.097700
     10 CAN          2.2030    -0.6600     0.3020 cc         1 WHF       0.405700
     11 SAK          2.9660     0.0580    -1.0870 ss         1 WHF      -0.356800
     12 NAI          2.8430    -0.4930     1.4530 nd         1 WHF      -0.289000
     13 NAH          4.0120     0.2280     1.2830 nd         1 WHF      -0.412000
     14 CAM          4.1800     0.5600     0.0230 cc         1 WHF       0.668300
     15 NAA          5.2460     1.2700    -0.3750 nv         1 WHF      -1.036900
     16 HAE         -4.4580    -1.8070    -0.2350 ha         1 WHF       0.152000
     17 HAC         -6.2390     0.0500    -0.2710 ha         1 WHF       0.140000
     18 HAD         -5.1900     2.4790    -0.0740 h4         1 WHF       0.153000
     19 HAF1        -0.2560     0.2910    -0.6730 hc         1 WHF       0.072200
     20 HAF2        -0.3760     0.2030     1.0130 hc         1 WHF       0.072200
     21 HAG1         0.7890    -2.0960     1.0070 hc         1 WHF       0.082200
     22 HAG2         0.9180    -2.0010    -0.7420 hc         1 WHF       0.082200
     23 HAA1         5.1710     1.7410    -1.2690 hn         1 WHF       0.484500
     24 HAA2         5.7620     1.7530     0.3520 hn         1 WHF       0.484500
@<TRIPOS>BOND
     1     1     2 1   
     2     1     5 2   
     3     1    16 1   
     4     2     3 2   
     5     2    17 1   
     6     3     4 1   
     7     3    18 1   
     8     4     5 1   
     9     5     6 1   
    10     6     7 2   
    11     6     8 1   
    12     8     9 1   
    13     8    19 1   
    14     8    20 1   
    15     9    10 1   
    16     9    21 1   
    17     9    22 1   
    18    10    11 1   
    19    10    12 2   
    20    11    14 1   
    21    12    13 1   
    22    13    14 2   
    23    14    15 1   
    24    15    23 1   
    25    15    24 1   
@<TRIPOS>SUBSTRUCTURE
     1 WHF         1 TEMP              0 ****  ****    0 ROOT
