@<TRIPOS>MOLECULE
WHF
   24    25     1     0     0
SMALL
bcc


@<TRIPOS>ATOM
      1 CAE         -4.1750    -0.7570    -0.1120 cc         1 WHF      -0.074000
      2 CAC         -5.1180     0.2910    -0.1750 cc         1 WHF      -0.165000
      3 CAD         -4.5280     1.5230    -0.1570 cd         1 WHF      -0.101100
      4 SAJ         -2.8310     1.4180    -0.0630 ss         1 WHF      -0.055800
      5 CAO         -2.8810    -0.3070    -0.0460 cd         1 WHF      -0.177700
      6 CAL         -1.6790    -1.1480     0.0290 c          1 WHF       0.611700
      7 OAB         -1.7780    -2.3580     0.0240 o          1 WHF      -0.517100
      8 CAF         -0.3430    -0.4520     0.1160 c3         1 WHF      -0.179400
      9 CAG          0.8360    -1.4190     0.1730 c3         1 WHF      -0.097700
     10 CAN          2.1330    -0.6960     0.2840 cc         1 WHF       0.405700
     11 SAK          2.7970     0.2320    -1.0360 ss         1 WHF      -0.356800
     12 NAI          2.8710    -0.6590     1.3350 nd         1 WHF      -0.289000
     13 NAH          3.9930     0.0840     1.2100 nd         1 WHF      -0.412000
     14 CAM          4.1110     0.6210     0.0320 cc         1 WHF       0.668300
     15 NAA          5.1680     1.3560    -0.3690 nv         1 WHF      -0.926500
     16 HAE         -4.4340    -1.8060    -0.1140 ha         1 WHF       0.170000
     17 HAC         -6.1870     0.1430    -0.2310 ha         1 WHF       0.158000
     18 HAD         -5.0100     2.4880    -0.1950 h4         1 WHF       0.171000
     19 HAF1        -0.2490     0.2240    -0.7410 hc         1 WHF       0.072200
     20 HAF2        -0.3410     0.1910     1.0030 hc         1 WHF       0.072200
     21 HAG1         0.7500    -2.0700     1.0430 hc         1 WHF       0.082200
     22 HAG2         0.8440    -2.0580    -0.7120 hc         1 WHF       0.082200
     23 HAA1         5.0610     1.9800    -1.1500 hn         1 WHF       0.429300
     24 HAA2         5.7680     1.7020     0.3630 hn         1 WHF       0.429300
@<TRIPOS>BOND
     1     1     2 1   
     2     1     5 2   
     3     1    16 1   
     4     2     3 2   
     5     2    17 1   
     6     3     4 1   
     7     3    18 1   
     8     4     5 1   
     9     5     6 1   
    10     6     7 2   
    11     6     8 1   
    12     8     9 1   
    13     8    19 1   
    14     8    20 1   
    15     9    10 1   
    16     9    21 1   
    17     9    22 1   
    18    10    11 1   
    19    10    12 2   
    20    11    14 1   
    21    12    13 1   
    22    13    14 2   
    23    14    15 1   
    24    15    23 1   
    25    15    24 1   
@<TRIPOS>SUBSTRUCTURE
     1 WHF         1 TEMP              0 ****  ****    0 ROOT
