@<TRIPOS>MOLECULE
WHG
   25    26     1     0     0
SMALL
bcc


@<TRIPOS>ATOM
      1 N1          16.3440     5.5050   -18.7570 n7         1 WHG      -0.786200
      2 C4          14.1210     4.9100   -17.8160 c6         1 WHG       0.132800
      3 C5          13.3920     2.0850   -16.8700 cc         1 WHG       0.292600
      4 C6          13.1120     2.6140   -15.5800 cc         1 WHG      -0.393600
      5 C7          13.5670     1.6570   -14.7430 cd         1 WHG       0.277600
      6 N           14.1060     3.7060   -18.6260 n3         1 WHG      -0.725600
      7 C           13.1410     2.7110   -18.2140 c3         1 WHG       0.142500
      8 O           14.0740     0.6450   -15.4450 os         1 WHG      -0.114100
      9 C1          15.4440     3.1830   -18.8270 c6         1 WHG       0.132800
     10 C2          16.3180     4.2450   -19.4830 c6         1 WHG       0.146800
     11 C3          14.9930     5.9660   -18.4840 c6         1 WHG       0.146800
     12 N2          13.9610     0.9170   -16.7750 nd         1 WHG      -0.359300
     13 H13         16.8260     5.3640   -17.8760 hn         1 WHG       0.344800
     14 H10         14.5060     4.7290   -16.7970 h1         1 WHG       0.038200
     15 H9          13.0990     5.2840   -17.7100 h1         1 WHG       0.038200
     16 H11         12.6420     3.5490   -15.3300 ha         1 WHG       0.172000
     17 H12         13.5910     1.5660   -13.6680 h4         1 WHG       0.058100
     18 H1          12.1500     3.1710   -18.2050 h1         1 WHG       0.071200
     19 H           13.1200     1.9190   -18.9660 h1         1 WHG       0.071200
     20 H3          15.9160     2.8620   -17.8830 h1         1 WHG       0.038200
     21 H2          15.3890     2.3020   -19.4720 h1         1 WHG       0.038200
     22 H5          17.3380     3.8700   -19.5850 h1         1 WHG       0.059450
     23 H4          15.9430     4.4400   -20.4930 h1         1 WHG       0.059450
     24 H8          15.0370     6.8590   -17.8570 h1         1 WHG       0.059450
     25 H7          14.5300     6.2580   -19.4320 h1         1 WHG       0.059450
@<TRIPOS>BOND
     1     1    10 1   
     2     1    11 1   
     3     1    13 1   
     4     2     6 1   
     5     2    11 1   
     6     2    14 1   
     7     2    15 1   
     8     3     4 1   
     9     3     7 1   
    10     3    12 2   
    11     4     5 2   
    12     4    16 1   
    13     5     8 1   
    14     5    17 1   
    15     6     7 1   
    16     6     9 1   
    17     7    18 1   
    18     7    19 1   
    19     8    12 1   
    20     9    10 1   
    21     9    20 1   
    22     9    21 1   
    23    10    22 1   
    24    10    23 1   
    25    11    24 1   
    26    11    25 1   
@<TRIPOS>SUBSTRUCTURE
     1 WHG         1 TEMP              0 ****  ****    0 ROOT
