@<TRIPOS>MOLECULE
WHG
   25    26     1     0     0
SMALL
No Charge or Current Charge


@<TRIPOS>ATOM
      1 N1          16.4160     5.5050   -18.7090 n7         1 WHG      -0.841400
      2 C4          14.1100     4.9190   -17.8210 c6         1 WHG       0.132800
      3 C5          13.4500     2.0180   -16.8420 cc         1 WHG       0.227300
      4 C6          13.0340     2.5630   -15.6140 cc         1 WHG      -0.245000
      5 C7          13.5190     1.7230   -14.6680 cd         1 WHG       0.167900
      6 N           14.0540     3.6950   -18.6790 n3         1 WHG      -0.725600
      7 C           13.1070     2.6480   -18.1820 c3         1 WHG       0.142500
      8 O           14.2000     0.7000   -15.2750 os         1 WHG      -0.069700
      9 C1          15.4300     3.1780   -18.9590 c6         1 WHG       0.132800
     10 C2          16.3610     4.2800   -19.5620 c6         1 WHG       0.146800
     11 C3          15.0430     6.0190   -18.4270 c6         1 WHG       0.146800
     12 N2          14.1460     0.8990   -16.7030 nd         1 WHG      -0.359300
     13 H13         16.8410     5.2410   -17.8120 hn         1 WHG       0.400000
     14 H10         14.4810     4.6650   -16.8180 h1         1 WHG       0.038200
     15 H9          13.1030     5.3430   -17.6940 h1         1 WHG       0.038200
     16 H11         12.4500     3.4650   -15.4710 ha         1 WHG       0.154000
     17 H12         13.4550     1.7310   -13.5870 h4         1 WHG       0.058100
     18 H1          12.0980     3.0740   -18.1020 h1         1 WHG       0.071200
     19 H           13.0350     1.8400   -18.9230 h1         1 WHG       0.071200
     20 H3          15.8900     2.8010   -18.0340 h1         1 WHG       0.038200
     21 H2          15.3840     2.3330   -19.6620 h1         1 WHG       0.038200
     22 H5          17.3740     3.8700   -19.6920 h1         1 WHG       0.059450
     23 H4          15.9880     4.5490   -20.5620 h1         1 WHG       0.059450
     24 H8          15.0990     6.8710   -17.7340 h1         1 WHG       0.059450
     25 H7          14.5930     6.3880   -19.3610 h1         1 WHG       0.059450
@<TRIPOS>BOND
     1     1    10 1   
     2     1    11 1   
     3     1    13 1   
     4     2     6 1   
     5     2    11 1   
     6     2    14 1   
     7     2    15 1   
     8     3     4 1   
     9     3     7 1   
    10     3    12 2   
    11     4     5 2   
    12     4    16 1   
    13     5     8 1   
    14     5    17 1   
    15     6     7 1   
    16     6     9 1   
    17     7    18 1   
    18     7    19 1   
    19     8    12 1   
    20     9    10 1   
    21     9    20 1   
    22     9    21 1   
    23    10    22 1   
    24    10    23 1   
    25    11    24 1   
    26    11    25 1   
@<TRIPOS>SUBSTRUCTURE
     1 WHG         1 TEMP              0 ****  ****    0 ROOT
