@<TRIPOS>MOLECULE
WHH
   57    60     1     0     0
SMALL
No Charge or Current Charge


@<TRIPOS>ATOM
      1 C32          8.6640     1.6030     0.3170 ca         1 WHH      -0.076000
      2 C12         -8.3030     1.2420    -0.0140 ca         1 WHH      -0.090500
      3 C14         -8.2580    -1.1300     0.5100 ca         1 WHH      -0.090500
      4 C33          7.7060     1.3770    -0.6860 ca         1 WHH      -0.129000
      5 C11         -6.9670     1.1700    -0.4450 ca         1 WHH      -0.135000
      6 C15         -6.9220    -1.1980     0.0780 ca         1 WHH      -0.135000
      7 C3           1.1020     0.5980     1.8610 ca         1 WHH      -0.095000
      8 C31          9.1570     0.5280     1.0770 ca         1 WHH      -0.189000
      9 C2          -0.1100     0.7280     2.5480 ca         1 WHH      -0.110000
     10 C29          7.7300    -0.9990    -0.1700 ca         1 WHH      -0.128000
     11 C5          -0.0900     0.1140    -0.2050 ca         1 WHH      -0.195600
     12 C13         -8.9710     0.0920     0.4700 ca         1 WHH      -0.127600
     13 C10         -6.2690    -0.0490    -0.4030 ca         1 WHH      -0.129300
     14 C28          7.2350     0.0740    -0.9370 ca         1 WHH      -0.081300
     15 C4           1.1280     0.2930     0.4920 ca         1 WHH       0.172400
     16 C30          8.6880    -0.7810     0.8340 ca         1 WHH       0.138100
     17 C6          -1.3320     0.2440     0.4800 ca         1 WHH       0.159100
     18 C1          -1.3230     0.5540     1.8730 ca         1 WHH       0.126000
     19 C19         -0.0030    -0.2100    -1.6640 c          1 WHH       0.579600
     20 C22          2.4070    -0.1050    -1.4000 cc         1 WHH       0.452900
     21 C24          3.6820    -0.2610    -2.2080 c          1 WHH       0.519800
     22 C35         10.1110    -1.7590     2.5980 c3         1 WHH       0.148900
     23 C9          -4.8180    -0.1240    -0.8640 c3         1 WHH      -0.020100
     24 C27          6.1930    -0.1700    -2.0180 c3         1 WHH       0.152300
     25 C8          -3.8320     0.1520     0.2860 c3         1 WHH       0.171600
     26 N23          2.4020     0.1870    -0.0910 nd         1 WHH      -0.641100
     27 N21          1.2610    -0.2910    -2.1360 ns         1 WHH      -0.411400
     28 N26          4.8400    -0.0760    -1.4760 ns         1 WHH      -0.474900
     29 O17        -10.9950     1.2450     0.8850 o          1 WHH      -0.721000
     30 O25          3.7270    -0.5280    -3.4080 o          1 WHH      -0.603100
     31 O18        -10.9550    -0.8520     1.3480 o          1 WHH      -0.721000
     32 O34          9.1330    -1.8750     1.5490 os         1 WHH      -0.339100
     33 F36         -2.4560     0.6950     2.5990 f          1 WHH      -0.161000
     34 H1           9.0240     2.6120     0.5050 ha         1 WHH       0.113000
     35 H2          -8.8200     2.1980    -0.0580 ha         1 WHH       0.127000
     36 H3          -8.7390    -2.0340     0.8770 ha         1 WHH       0.127000
     37 H4           7.3290     2.2160    -1.2670 ha         1 WHH       0.120000
     38 H5          -6.4750     2.0680    -0.8110 ha         1 WHH       0.087500
     39 H6          -6.3940    -2.1480     0.1210 ha         1 WHH       0.087500
     40 H7           2.0370     0.7360     2.3980 ha         1 WHH       0.131000
     41 H8           9.8970     0.7310     1.8460 ha         1 WHH       0.117000
     42 H9          -0.1110     0.9650     3.6100 ha         1 WHH       0.133000
     43 H10          7.3700    -2.0080    -0.3520 ha         1 WHH       0.133000
     44 H11          9.7470    -1.1050     3.4000 h1         1 WHH       0.040700
     45 H12         10.3210    -2.7450     3.0320 h1         1 WHH       0.040700
     46 H13         11.0530    -1.3520     2.2090 h1         1 WHH       0.040700
     47 H14         -4.6060    -1.1130    -1.2870 hc         1 WHH       0.052200
     48 H15         -4.6390     0.6010    -1.6680 hc         1 WHH       0.052200
     49 H16          6.3090     0.5690    -2.8220 h1         1 WHH       0.061700
     50 H17          6.3350    -1.1690    -2.4530 h1         1 WHH       0.061700
     51 H18         -4.0220     1.1550     0.6890 h1         1 WHH       0.041200
     52 H19         -3.9880    -0.5910     1.0790 h1         1 WHH       0.041200
     53 H20          1.3530    -0.5080    -3.1180 hn         1 WHH       0.357500
     54 H21          4.7200     0.1420    -0.4910 hn         1 WHH       0.354500
     55 O20         -0.9470    -0.3950    -2.4150 o          1 WHH      -0.490000
     56 O7          -2.5000     0.0580    -0.2500 os         1 WHH      -0.353100
     57 C16        -10.4170     0.1670     0.9370 c          1 WHH       0.711600
@<TRIPOS>BOND
     1     1     4 ar  
     2     1     8 ar  
     3     1    34 1   
     4     2     5 ar  
     5     2    12 ar  
     6     2    35 1   
     7     3     6 ar  
     8     3    12 ar  
     9     3    36 1   
    10     4    14 ar  
    11     4    37 1   
    12     5    13 ar  
    13     5    38 1   
    14     6    13 ar  
    15     6    39 1   
    16     7     9 ar  
    17     7    15 ar  
    18     7    40 1   
    19     8    16 ar  
    20     8    41 1   
    21     9    18 ar  
    22     9    42 1   
    23    10    14 ar  
    24    10    16 ar  
    25    10    43 1   
    26    11    15 ar  
    27    11    17 ar  
    28    11    19 1   
    29    12    57 1   
    30    13    23 1   
    31    14    24 1   
    32    15    26 1   
    33    16    32 1   
    34    17    18 ar  
    35    17    56 1   
    36    18    33 1   
    37    19    27 1   
    38    19    55 2   
    39    20    21 1   
    40    20    26 2   
    41    20    27 1   
    42    21    28 1   
    43    21    30 2   
    44    22    32 1   
    45    22    44 1   
    46    22    45 1   
    47    22    46 1   
    48    23    25 1   
    49    23    47 1   
    50    23    48 1   
    51    24    28 1   
    52    24    49 1   
    53    24    50 1   
    54    25    51 1   
    55    25    52 1   
    56    25    56 1   
    57    27    53 1   
    58    28    54 1   
    59    29    57 1   
    60    31    57 1   
@<TRIPOS>SUBSTRUCTURE
     1 WHH         1 TEMP              0 ****  ****    0 ROOT
