@<TRIPOS>MOLECULE
WHH
   57    60     1     0     0
SMALL
abcg2


@<TRIPOS>ATOM
      1 C32          8.3990     0.4610    -0.3300 ca         1 WHH      -0.076000
      2 C12         -7.5260    -0.3370     1.0290 ca         1 WHH      -0.090500
      3 C14         -6.5900    -1.8520    -0.5630 ca         1 WHH      -0.090500
      4 C33          7.3590     0.0920    -1.1650 ca         1 WHH      -0.129000
      5 C11         -6.6250     0.6400     0.6320 ca         1 WHH      -0.135000
      6 C15         -5.6890    -0.8760    -0.9630 ca         1 WHH      -0.135000
      7 C3           1.2490     2.2160     1.4180 ca         1 WHH      -0.095000
      8 C31          8.6350    -0.2110     0.8650 ca         1 WHH      -0.189000
      9 C2           0.2220     2.9520     1.9630 ca         1 WHH      -0.110000
     10 C29          6.7640    -1.6510     0.3800 ca         1 WHH      -0.128000
     11 C5          -0.2320     1.4490    -0.3540 ca         1 WHH      -0.195600
     12 C13         -7.5230    -1.5980     0.4390 ca         1 WHH      -0.127600
     13 C10         -5.6940     0.3860    -0.3720 ca         1 WHH      -0.129300
     14 C28          6.5360    -0.9740    -0.8080 ca         1 WHH      -0.081300
     15 C4           1.0380     1.4630     0.2600 ca         1 WHH       0.172400
     16 C30          7.8120    -1.2760     1.2240 ca         1 WHH       0.138100
     17 C6          -1.2770     2.2090     0.2000 ca         1 WHH       0.159100
     18 C1          -1.0220     2.9340     1.3520 ca         1 WHH       0.126000
     19 C19         -0.4140     0.6580    -1.5770 c          1 WHH       0.579600
     20 C22          1.9130     0.0730    -1.3070 cc         1 WHH       0.452900
     21 C24          3.0350    -0.7340    -1.9140 c          1 WHH       0.519800
     22 C35          8.9700    -1.6340     3.2620 c3         1 WHH       0.148900
     23 C9          -4.6850     1.4250    -0.7750 c3         1 WHH      -0.020100
     24 C27          5.3760    -1.3670    -1.6790 c3         1 WHH       0.152300
     25 C8          -3.4300     1.2830     0.0660 c3         1 WHH       0.171600
     26 N23          2.1040     0.7540    -0.2420 nd         1 WHH      -0.641100
     27 N21          0.7370     0.0060    -1.9690 ns         1 WHH      -0.411400
     28 N26          4.1840    -0.6530    -1.2560 ns         1 WHH      -0.474900
     29 O17         -9.3330    -2.3440     1.7580 o          1 WHH      -0.721000
     30 O25          2.8400    -1.3860    -2.9290 o          1 WHH      -0.603100
     31 O18         -8.4210    -3.7780     0.3160 o          1 WHH      -0.721000
     32 O34          7.9510    -1.9970     2.3520 os         1 WHH      -0.339100
     33 F36         -2.0190     3.6470     1.8850 f          1 WHH      -0.161000
     34 H1           9.0460     1.2840    -0.6040 ha         1 WHH       0.113000
     35 H2          -8.2460    -0.1190     1.8080 ha         1 WHH       0.127000
     36 H3          -6.5720    -2.8250    -1.0370 ha         1 WHH       0.127000
     37 H4           7.1890     0.6230    -2.0940 ha         1 WHH       0.120000
     38 H5          -6.6470     1.6160     1.1050 ha         1 WHH       0.087500
     39 H6          -4.9730    -1.0930    -1.7470 ha         1 WHH       0.087500
     40 H7           2.2300     2.2160     1.8730 ha         1 WHH       0.131000
     41 H8           9.4580     0.1040     1.4910 ha         1 WHH       0.117000
     42 H9           0.3720     3.5400     2.8590 ha         1 WHH       0.133000
     43 H10          6.1300    -2.4830     0.6640 ha         1 WHH       0.133000
     44 H11          8.8470    -0.6120     3.6280 h1         1 WHH       0.040700
     45 H12          8.8910    -2.3180     4.1030 h1         1 WHH       0.040700
     46 H13          9.9670    -1.7330     2.8230 h1         1 WHH       0.040700
     47 H14         -4.4220     1.3100    -1.8280 hc         1 WHH       0.052200
     48 H15         -5.1000     2.4280    -0.6440 hc         1 WHH       0.052200
     49 H16          5.5880    -1.1320    -2.7240 h1         1 WHH       0.061700
     50 H17          5.2020    -2.4450    -1.6190 h1         1 WHH       0.061700
     51 H18         -3.6630     1.4140     1.1280 h1         1 WHH       0.041200
     52 H19         -3.0030     0.2850    -0.0660 h1         1 WHH       0.041200
     53 H20          0.6930    -0.5670    -2.8050 hn         1 WHH       0.357500
     54 H21          4.2140    -0.0880    -0.4190 hn         1 WHH       0.354500
     55 O20         -1.4350     0.5410    -2.2230 o          1 WHH      -0.490000
     56 O7          -2.4990     2.2840    -0.3570 os         1 WHH      -0.353100
     57 C16         -8.5140    -2.6690     0.8770 c          1 WHH       0.711600
@<TRIPOS>BOND
     1     1     4 ar  
     2     1     8 ar  
     3     1    34 1   
     4     2     5 ar  
     5     2    12 ar  
     6     2    35 1   
     7     3     6 ar  
     8     3    12 ar  
     9     3    36 1   
    10     4    14 ar  
    11     4    37 1   
    12     5    13 ar  
    13     5    38 1   
    14     6    13 ar  
    15     6    39 1   
    16     7     9 ar  
    17     7    15 ar  
    18     7    40 1   
    19     8    16 ar  
    20     8    41 1   
    21     9    18 ar  
    22     9    42 1   
    23    10    14 ar  
    24    10    16 ar  
    25    10    43 1   
    26    11    15 ar  
    27    11    17 ar  
    28    11    19 1   
    29    12    57 1   
    30    13    23 1   
    31    14    24 1   
    32    15    26 1   
    33    16    32 1   
    34    17    18 ar  
    35    17    56 1   
    36    18    33 1   
    37    19    27 1   
    38    19    55 2   
    39    20    21 1   
    40    20    26 2   
    41    20    27 1   
    42    21    28 1   
    43    21    30 2   
    44    22    32 1   
    45    22    44 1   
    46    22    45 1   
    47    22    46 1   
    48    23    25 1   
    49    23    47 1   
    50    23    48 1   
    51    24    28 1   
    52    24    49 1   
    53    24    50 1   
    54    25    51 1   
    55    25    52 1   
    56    25    56 1   
    57    27    53 1   
    58    28    54 1   
    59    29    57 1   
    60    31    57 1   
@<TRIPOS>SUBSTRUCTURE
     1 WHH         1 TEMP              0 ****  ****    0 ROOT
