@<TRIPOS>MOLECULE
WHI
   29    30     1     0     0
SMALL
abcg2


@<TRIPOS>ATOM
      1 C01          5.3140     8.1380    21.9560 ca         1 WHI      -0.082000
      2 C02          5.1590     7.4420    20.7570 ca         1 WHI      -0.088300
      3 C04          3.8500     5.7720    21.9280 ca         1 WHI      -0.101500
      4 C05          4.0200     6.4870    23.1060 ca         1 WHI       0.133000
      5 C06          4.7460     7.6700    23.1340 ca         1 WHI      -0.101500
      6 C10          8.0920     8.0240    17.8670 c3         1 WHI       0.070800
      7 C11          7.2870     7.7260    16.6430 cc         1 WHI       0.081400
      8 C13          6.0000     8.3230    14.6810 c          1 WHI       0.570200
      9 C15          6.4030     5.9590    15.2580 cs         1 WHI       0.447400
     10 C03          4.4240     6.2570    20.7590 ca         1 WHI      -0.082000
     11 CL07         3.3030     5.8850    24.5870 cl         1 WHI      -0.204000
     12 C08          5.8040     7.9390    19.4980 c3         1 WHI       0.124900
     13 S09          7.4780     7.1920    19.3690 ss         1 WHI      -0.418000
     14 C12          6.7490     8.6850    15.8570 cd         1 WHI      -0.356200
     15 N14          5.8830     6.9410    14.4780 ns         1 WHI      -0.406500
     16 N16          7.1070     6.4020    16.3310 ns         1 WHI      -0.450600
     17 O17          5.4810     9.0980    13.8870 o          1 WHI      -0.507000
     18 S18          6.1990     4.3310    14.9320 s          1 WHI      -0.562400
     19 H19          5.8830     9.0590    21.9710 ha         1 WHI       0.122500
     20 H21          3.2770     4.8550    21.9230 ha         1 WHI       0.135000
     21 H22          4.8650     8.2160    24.0590 ha         1 WHI       0.135000
     22 H26          8.1320     9.1000    18.0230 h1         1 WHI       0.098700
     23 H25          9.1110     7.6510    17.7400 h1         1 WHI       0.098700
     24 H20          4.2940     5.7040    19.8360 ha         1 WHI       0.122500
     25 H24          5.2250     7.6520    18.6210 h1         1 WHI       0.071200
     26 H23          5.9210     9.0220    19.5130 h1         1 WHI       0.071200
     27 H27          6.8740     9.7310    16.0890 ha         1 WHI       0.226000
     28 H28          5.3510     6.6470    13.6680 hn         1 WHI       0.362500
     29 H29          7.4790     5.6950    16.9510 hn         1 WHI       0.488000
@<TRIPOS>BOND
     1     1     2 ar  
     2     1     5 ar  
     3     1    19 1   
     4     2    10 ar  
     5     2    12 1   
     6     3     4 ar  
     7     3    10 ar  
     8     3    20 1   
     9     4     5 ar  
    10     4    11 1   
    11     5    21 1   
    12     6     7 1   
    13     6    13 1   
    14     6    22 1   
    15     6    23 1   
    16     7    14 2   
    17     7    16 1   
    18     8    14 1   
    19     8    15 1   
    20     8    17 2   
    21     9    15 1   
    22     9    16 1   
    23     9    18 2   
    24    10    24 1   
    25    12    13 1   
    26    12    25 1   
    27    12    26 1   
    28    14    27 1   
    29    15    28 1   
    30    16    29 1   
@<TRIPOS>SUBSTRUCTURE
     1 WHI         1 TEMP              0 ****  ****    0 ROOT
