@<TRIPOS>MOLECULE
WHI
   29    30     1     0     0
SMALL
No Charge or Current Charge


@<TRIPOS>ATOM
      1 C01          5.3740     8.0880    22.0170 ca         1 WHI      -0.082000
      2 C02          5.2390     7.4590    20.7630 ca         1 WHI      -0.088300
      3 C04          3.7880     5.7790    21.7780 ca         1 WHI      -0.101500
      4 C05          3.9250     6.4110    23.0240 ca         1 WHI       0.133000
      5 C06          4.7170     7.5640    23.1460 ca         1 WHI      -0.101500
      6 C10          8.2100     8.1190    17.8220 c3         1 WHI       0.070800
      7 C11          7.3310     7.7860    16.6400 cc         1 WHI       0.081400
      8 C13          5.9140     8.2150    14.6550 c          1 WHI       0.570200
      9 C15          6.3070     5.9220    15.4350 cs         1 WHI       0.447400
     10 C03          4.4440     6.3010    20.6490 ca         1 WHI      -0.082000
     11 Cl07         3.1040     5.7570    24.4360 cl         1 WHI      -0.204000
     12 C08          5.9500     8.0230    19.5430 c3         1 WHI       0.124900
     13 S09          7.6370     7.2790    19.3760 ss         1 WHI      -0.418000
     14 C12          6.7580     8.6750    15.7650 cd         1 WHI      -0.356200
     15 N14          5.7730     6.8560    14.6050 ns         1 WHI      -0.406500
     16 N16          7.0750     6.4440    16.4310 ns         1 WHI      -0.450600
     17 O17          5.3830     8.9590    13.8490 o          1 WHI      -0.507000
     18 S18          6.0430     4.2890    15.2600 s          1 WHI      -0.562400
     19 H19          5.9890     8.9790    22.1180 ha         1 WHI       0.122500
     20 H21          3.1750     4.8860    21.6880 ha         1 WHI       0.135000
     21 H22          4.8230     8.0500    24.1120 ha         1 WHI       0.135000
     22 H26          8.2130     9.2050    17.9810 h1         1 WHI       0.098700
     23 H25          9.2410     7.8120    17.6040 h1         1 WHI       0.098700
     24 H20          4.3360     5.8050    19.6870 ha         1 WHI       0.122500
     25 H24          5.3640     7.8060    18.6400 h1         1 WHI       0.071200
     26 H23          6.0420     9.1130    19.6320 h1         1 WHI       0.071200
     27 H27          6.8920     9.7470    15.8400 ha         1 WHI       0.226000
     28 H28          5.1970     6.5110    13.8530 hn         1 WHI       0.362500
     29 H29          7.4700     5.7630    17.0730 hn         1 WHI       0.488000
@<TRIPOS>BOND
     1     1     2 ar  
     2     1     5 ar  
     3     1    19 1   
     4     2    10 ar  
     5     2    12 1   
     6     3     4 ar  
     7     3    10 ar  
     8     3    20 1   
     9     4     5 ar  
    10     4    11 1   
    11     5    21 1   
    12     6     7 1   
    13     6    13 1   
    14     6    22 1   
    15     6    23 1   
    16     7    14 2   
    17     7    16 1   
    18     8    14 1   
    19     8    15 1   
    20     8    17 2   
    21     9    15 1   
    22     9    16 1   
    23     9    18 2   
    24    10    24 1   
    25    12    13 1   
    26    12    25 1   
    27    12    26 1   
    28    14    27 1   
    29    15    28 1   
    30    16    29 1   
@<TRIPOS>SUBSTRUCTURE
     1 WHI         1 TEMP              0 ****  ****    0 ROOT
