@<TRIPOS>MOLECULE
WHJ
   51    53     1     0     0
SMALL
No Charge or Current Charge


@<TRIPOS>ATOM
      1 O1           4.6420    -3.9430    -1.3760 o          1 WHJ      -0.555000
      2 C9           4.1090    -2.9220    -0.9710 c          1 WHJ       0.557200
      3 N1           4.8100    -1.7630    -0.7710 ns         1 WHJ      -0.363100
      4 C7           4.3090    -0.5270    -0.3100 ca         1 WHJ       0.075600
      5 C6           5.1680     0.5810    -0.1710 ca         1 WHJ       0.089100
      6 O2           6.4980     0.4730    -0.4780 oh         1 WHJ      -0.545100
      7 C5           4.6520     1.8030     0.2770 ca         1 WHJ      -0.164000
      8 C4           3.2870     1.9170     0.5920 ca         1 WHJ      -0.079000
      9 C8           2.6760    -2.8090    -0.6540 cc         1 WHJ      -0.287200
     10 C1           2.1090    -1.6340    -0.1940 cd         1 WHJ      -0.095200
     11 C2           2.9360    -0.4260     0.0020 ca         1 WHJ      -0.098800
     12 C3           2.4130     0.8100     0.4730 ca         1 WHJ      -0.064300
     13 C10          0.9220     0.9690     0.8220 c3         1 WHJ       0.222600
     14 O4           0.6730     2.0220     1.7520 oh         1 WHJ      -0.664000
     15 C11          0.0500     1.3020    -0.4170 c3         1 WHJ       0.112800
     16 N2          -1.2370     1.9280     0.0140 n7         1 WHJ      -0.892400
     17 C12         -2.0740     2.4870    -1.0640 c3         1 WHJ       0.185500
     18 C13         -1.5220     3.8560    -1.5170 c3         1 WHJ      -0.091100
     19 C14         -3.5350     2.5870    -0.5640 c3         1 WHJ      -0.030100
     20 C15         -4.1050     1.2410    -0.1180 ca         1 WHJ      -0.131300
     21 C20         -4.3530     0.9870     1.2450 ca         1 WHJ      -0.072000
     22 C19         -4.8690    -0.2570     1.6490 ca         1 WHJ      -0.171500
     23 C18         -5.1420    -1.2570     0.7030 ca         1 WHJ       0.142100
     24 O3          -5.6470    -2.4570     1.1610 os         1 WHJ      -0.340100
     25 C21         -5.9590    -3.5460     0.2740 c3         1 WHJ       0.147900
     26 C17         -4.8970    -1.0050    -0.6640 ca         1 WHJ      -0.171500
     27 C16         -4.3810     0.2390    -1.0690 ca         1 WHJ      -0.072000
     28 H1           5.8000    -1.7940    -0.9790 hn         1 WHJ       0.342500
     29 H8           2.0920    -3.7090    -0.8070 ha         1 WHJ       0.207000
     30 H2           6.9290     1.3410    -0.3200 ho         1 WHJ       0.475000
     31 H5           5.2990     2.6710     0.3820 ha         1 WHJ       0.118000
     32 H4           2.9110     2.8790     0.9320 ha         1 WHJ       0.137000
     33 HA           1.0420    -1.6290     0.0090 ha         1 WHJ       0.186000
     34 H10          0.5510     0.0360     1.2640 h1         1 WHJ       0.038700
     35 HB          -0.1680     2.3860     1.3650 ho         1 WHJ       0.475000
     36 H111         0.6190     1.9940    -1.0530 h1         1 WHJ       0.046200
     37 H112        -0.1260     0.3900    -1.0030 h1         1 WHJ       0.046200
     38 HC          -1.8070     1.1880     0.4500 hn         1 WHJ       0.423000
     39 H12         -2.0670     1.8080    -1.9290 h1         1 WHJ       0.023700
     40 H131        -2.1650     4.2900    -2.2900 hc         1 WHJ       0.040367
     41 H132        -1.4760     4.5560    -0.6750 hc         1 WHJ       0.040367
     42 H133        -0.5150     3.7570    -1.9390 hc         1 WHJ       0.040367
     43 H141        -3.5840     3.3150     0.2550 hc         1 WHJ       0.056200
     44 H142        -4.1570     2.9960    -1.3690 hc         1 WHJ       0.056200
     45 H20         -4.1450     1.7500     1.9920 ha         1 WHJ       0.114000
     46 H16         -4.1940     0.4240    -2.1250 ha         1 WHJ       0.114000
     47 H19         -5.0570    -0.4470     2.7030 ha         1 WHJ       0.124000
     48 H17         -5.0970    -1.7560    -1.4220 ha         1 WHJ       0.124000
     49 H211        -6.7250    -3.2490    -0.4540 h1         1 WHJ       0.041700
     50 H212        -5.0640    -3.8750    -0.2700 h1         1 WHJ       0.041700
     51 H213        -6.3450    -4.4010     0.8420 h1         1 WHJ       0.041700
@<TRIPOS>BOND
     1     1     2 2   
     2     2     3 1   
     3     2     9 1   
     4     3     4 1   
     5     3    28 1   
     6     4     5 ar  
     7     4    11 ar  
     8     5     6 1   
     9     5     7 ar  
    10     6    30 1   
    11     7     8 ar  
    12     7    31 1   
    13     8    12 ar  
    14     8    32 1   
    15     9    10 2   
    16     9    29 1   
    17    10    11 1   
    18    10    33 1   
    19    11    12 ar  
    20    12    13 1   
    21    13    14 1   
    22    13    15 1   
    23    13    34 1   
    24    14    35 1   
    25    15    16 1   
    26    15    36 1   
    27    15    37 1   
    28    16    17 1   
    29    16    38 1   
    30    17    18 1   
    31    17    19 1   
    32    17    39 1   
    33    18    40 1   
    34    18    41 1   
    35    18    42 1   
    36    19    20 1   
    37    19    43 1   
    38    19    44 1   
    39    20    21 ar  
    40    20    27 ar  
    41    21    22 ar  
    42    21    45 1   
    43    22    23 ar  
    44    22    47 1   
    45    23    24 1   
    46    23    26 ar  
    47    24    25 1   
    48    25    49 1   
    49    25    50 1   
    50    25    51 1   
    51    26    27 ar  
    52    26    48 1   
    53    27    46 1   
@<TRIPOS>SUBSTRUCTURE
     1 WHJ         1 TEMP              0 ****  ****    0 ROOT
