@<TRIPOS>MOLECULE
WHJ
   51    53     1     0     0
SMALL
abcg2


@<TRIPOS>ATOM
      1 O1           4.2800    -3.9140    -1.2960 o          1 WHJ      -0.555000
      2 C9           3.8210    -2.8550    -0.8830 c          1 WHJ       0.557200
      3 N1           4.6080    -1.7450    -0.7440 ns         1 WHJ      -0.363100
      4 C7           4.1900    -0.5140    -0.3020 ca         1 WHJ       0.075600
      5 C6           5.1150     0.5410    -0.2150 ca         1 WHJ       0.089100
      6 O2           6.3820     0.2590    -0.5780 oh         1 WHJ      -0.545100
      7 C5           4.6810     1.7710     0.2240 ca         1 WHJ      -0.164000
      8 C4           3.3440     1.9720     0.5800 ca         1 WHJ      -0.079000
      9 C8           2.4370    -2.6520    -0.5010 cc         1 WHJ      -0.287200
     10 C1           1.9900    -1.4600    -0.0590 cd         1 WHJ      -0.095200
     11 C2           2.8510    -0.3170     0.0590 ca         1 WHJ      -0.098800
     12 C3           2.4200     0.9520     0.5080 ca         1 WHJ      -0.064300
     13 C10          0.9740     1.1970     0.8560 c3         1 WHJ       0.222600
     14 O4           0.8550     2.3110     1.7020 oh         1 WHJ      -0.664000
     15 C11          0.1420     1.4430    -0.4090 c3         1 WHJ       0.112800
     16 N2          -1.1920     1.8410    -0.0040 n7         1 WHJ      -0.892400
     17 C12         -2.0350     2.3900    -1.0600 c3         1 WHJ       0.185500
     18 C13         -1.5590     3.7730    -1.4800 c3         1 WHJ      -0.091100
     19 C14         -3.4830     2.4700    -0.5600 c3         1 WHJ      -0.030100
     20 C15         -4.0510     1.1420    -0.1410 ca         1 WHJ      -0.131300
     21 C20         -4.2110     0.8100     1.2040 ca         1 WHJ      -0.072000
     22 C19         -4.7050    -0.4230     1.5930 ca         1 WHJ      -0.171500
     23 C18         -5.0570    -1.3720     0.6340 ca         1 WHJ       0.142100
     24 O3          -5.5310    -2.5460     1.0970 os         1 WHJ      -0.340100
     25 C21         -5.9090    -3.5360     0.1630 c3         1 WHJ       0.147900
     26 C17         -4.9060    -1.0600    -0.7160 ca         1 WHJ      -0.171500
     27 C16         -4.4090     0.1840    -1.0840 ca         1 WHJ      -0.072000
     28 H1           5.5820    -1.8540    -0.9940 hn         1 WHJ       0.342500
     29 H8           1.7690    -3.4990    -0.5810 ha         1 WHJ       0.207000
     30 H2           6.9470     1.0340    -0.4860 ho         1 WHJ       0.475000
     31 H5           5.3820     2.5940     0.2960 ha         1 WHJ       0.118000
     32 H4           3.0420     2.9530     0.9180 ha         1 WHJ       0.137000
     33 HA           0.9480    -1.3730     0.2160 ha         1 WHJ       0.186000
     34 H10          0.5710     0.3060     1.3630 h1         1 WHJ       0.038700
     35 HB          -0.0450     2.6390     1.5370 ho         1 WHJ       0.475000
     36 H111         0.6100     2.2540    -0.9710 h1         1 WHJ       0.046200
     37 H112         0.1570     0.5570    -1.0590 h1         1 WHJ       0.046200
     38 HC          -1.6570     1.0280     0.3900 hn         1 WHJ       0.423000
     39 H12         -2.0220     1.7360    -1.9470 h1         1 WHJ       0.023700
     40 H131        -2.2160     4.1790    -2.2490 hc         1 WHJ       0.040367
     41 H132        -1.5670     4.4550    -0.6280 hc         1 WHJ       0.040367
     42 H133        -0.5500     3.7590    -1.8930 hc         1 WHJ       0.040367
     43 H141        -3.5270     3.1720     0.2780 hc         1 WHJ       0.056200
     44 H142        -4.0900     2.8990    -1.3610 hc         1 WHJ       0.056200
     45 H20         -3.9500     1.5330     1.9680 ha         1 WHJ       0.114000
     46 H16         -4.3050     0.4070    -2.1400 ha         1 WHJ       0.114000
     47 H19         -4.8230    -0.6570     2.6440 ha         1 WHJ       0.124000
     48 H17         -5.1720    -1.7670    -1.4920 ha         1 WHJ       0.124000
     49 H211        -6.7150    -3.1950    -0.4930 h1         1 WHJ       0.041700
     50 H212        -5.0660    -3.8570    -0.4550 h1         1 WHJ       0.041700
     51 H213        -6.2630    -4.3870     0.7390 h1         1 WHJ       0.041700
@<TRIPOS>BOND
     1     1     2 2   
     2     2     3 1   
     3     2     9 1   
     4     3     4 1   
     5     3    28 1   
     6     4     5 ar  
     7     4    11 ar  
     8     5     6 1   
     9     5     7 ar  
    10     6    30 1   
    11     7     8 ar  
    12     7    31 1   
    13     8    12 ar  
    14     8    32 1   
    15     9    10 2   
    16     9    29 1   
    17    10    11 1   
    18    10    33 1   
    19    11    12 ar  
    20    12    13 1   
    21    13    14 1   
    22    13    15 1   
    23    13    34 1   
    24    14    35 1   
    25    15    16 1   
    26    15    36 1   
    27    15    37 1   
    28    16    17 1   
    29    16    38 1   
    30    17    18 1   
    31    17    19 1   
    32    17    39 1   
    33    18    40 1   
    34    18    41 1   
    35    18    42 1   
    36    19    20 1   
    37    19    43 1   
    38    19    44 1   
    39    20    21 ar  
    40    20    27 ar  
    41    21    22 ar  
    42    21    45 1   
    43    22    23 ar  
    44    22    47 1   
    45    23    24 1   
    46    23    26 ar  
    47    24    25 1   
    48    25    49 1   
    49    25    50 1   
    50    25    51 1   
    51    26    27 ar  
    52    26    48 1   
    53    27    46 1   
@<TRIPOS>SUBSTRUCTURE
     1 WHJ         1 TEMP              0 ****  ****    0 ROOT
