@<TRIPOS>MOLECULE
WHL
   26    26     1     0     0
SMALL
abcg2


@<TRIPOS>ATOM
      1 CA           1.4250    33.8330   -53.6940 ca         1 WHL      -0.121250
      2 CB           1.2780    34.4950   -54.9030 ca         1 WHL      -0.121250
      3 NB           1.0520    36.4660   -56.2430 ns         1 WHL      -0.145000
      4 OB           1.6010    31.7460   -51.6730 o          1 WHL      -0.593100
      5 CG           1.6930    32.6750   -50.8740 c          1 WHL       0.603100
      6 CD           1.2800    36.6200   -53.7810 ca         1 WHL      -0.121250
      7 CE           1.4260    35.9580   -52.5730 ca         1 WHL      -0.121250
      8 CH           1.8680    32.4260   -49.3940 c3         1 WHL      -0.177100
      9 CC           1.2020    35.8880   -54.9700 ca         1 WHL      -0.048000
     10 CF           1.4990    34.5650   -52.5050 ca         1 WHL      -0.048000
     11 CJ           0.9230    37.7770   -56.5880 c          1 WHL       0.603100
     12 CK           0.7780    38.0350   -58.0690 c3         1 WHL      -0.177100
     13 NA           1.6500    33.9880   -51.2310 ns         1 WHL      -0.145000
     14 OA           0.9230    38.6980   -55.7750 o          1 WHL      -0.593100
     15 H1           1.4810    32.7580   -53.6700 ha         1 WHL       0.131000
     16 H2           1.2220    33.9160   -55.8170 ha         1 WHL       0.131000
     17 H3           1.0280    35.8060   -57.0060 hn         1 WHL       0.148000
     18 H4           1.2260    37.6950   -53.8060 ha         1 WHL       0.131000
     19 H5           1.4840    36.5380   -51.6590 ha         1 WHL       0.131000
     20 H6           2.7940    31.8680   -49.2440 hc         1 WHL       0.063867
     21 H7           1.9020    33.3390   -48.8030 hc         1 WHL       0.063867
     22 H8           1.0440    31.8020   -49.0460 hc         1 WHL       0.063867
     23 H9          -0.1610    38.5630   -58.2400 hc         1 WHL       0.063867
     24 H10          1.5900    38.6920   -58.3880 hc         1 WHL       0.063867
     25 H11          0.7950    37.1280   -58.6710 hc         1 WHL       0.063867
     26 H12          1.7290    34.6510   -50.4750 hn         1 WHL       0.148000
@<TRIPOS>BOND
     1     1     2 ar  
     2     1    10 ar  
     3     1    15 1   
     4     2     9 ar  
     5     2    16 1   
     6     3     9 1   
     7     3    11 1   
     8     3    17 1   
     9     4     5 2   
    10     5     8 1   
    11     5    13 1   
    12     6     7 ar  
    13     6     9 ar  
    14     6    18 1   
    15     7    10 ar  
    16     7    19 1   
    17     8    20 1   
    18     8    21 1   
    19     8    22 1   
    20    10    13 1   
    21    11    12 1   
    22    11    14 2   
    23    12    23 1   
    24    12    24 1   
    25    12    25 1   
    26    13    26 1   
@<TRIPOS>SUBSTRUCTURE
     1 WHL         1 TEMP              0 ****  ****    0 ROOT
