@<TRIPOS>MOLECULE
WHL
   26    26     1     0     0
SMALL
No Charge or Current Charge


@<TRIPOS>ATOM
      1 CA           1.3880    33.8250   -53.7180 ca         1 WHL      -0.121250
      2 CB           1.2380    34.5160   -54.9340 ca         1 WHL      -0.121250
      3 NB           1.0310    36.5470   -56.2360 ns         1 WHL      -0.145000
      4 OB           1.6850    31.6220   -51.6160 o          1 WHL      -0.593100
      5 CG           1.7290    32.5770   -50.8480 c          1 WHL       0.603100
      6 CD           1.2830    36.6310   -53.7510 ca         1 WHL      -0.121250
      7 CE           1.4330    35.9400   -52.5350 ca         1 WHL      -0.121250
      8 CH           1.8900    32.3760   -49.3430 c3         1 WHL      -0.177100
      9 CC           1.1840    35.9210   -54.9660 ca         1 WHL      -0.048000
     10 CF           1.4870    34.5350   -52.5030 ca         1 WHL      -0.048000
     11 CJ           0.9430    37.8790   -56.6210 c          1 WHL       0.603100
     12 CK           0.7810    38.0790   -58.1260 c3         1 WHL      -0.177100
     13 NA           1.6410    33.9090   -51.2330 ns         1 WHL      -0.145000
     14 OA           0.9880    38.8340   -55.8540 o          1 WHL      -0.593100
     15 H1           1.4240    32.7410   -53.7470 ha         1 WHL       0.131000
     16 H2           1.1640    33.9480   -55.8600 ha         1 WHL       0.131000
     17 H3           0.9750    35.8940   -57.0070 hn         1 WHL       0.148000
     18 H4           1.2470    37.7150   -53.7230 ha         1 WHL       0.131000
     19 H5           1.5080    36.5070   -51.6090 ha         1 WHL       0.131000
     20 H6           2.7630    32.9430   -48.9990 hc         1 WHL       0.063867
     21 H7           1.0670    32.8810   -48.8260 hc         1 WHL       0.063867
     22 H8           1.9580    31.3190   -49.0620 hc         1 WHL       0.063867
     23 H9           0.7140    39.1360   -58.4070 hc         1 WHL       0.063867
     24 H10          1.6050    37.5740   -58.6440 hc         1 WHL       0.063867
     25 H11         -0.0910    37.5130   -58.4690 hc         1 WHL       0.063867
     26 H12          1.6960    34.5620   -50.4620 hn         1 WHL       0.148000
@<TRIPOS>BOND
     1     1     2 ar  
     2     1    10 ar  
     3     1    15 1   
     4     2     9 ar  
     5     2    16 1   
     6     3     9 1   
     7     3    11 1   
     8     3    17 1   
     9     4     5 2   
    10     5     8 1   
    11     5    13 1   
    12     6     7 ar  
    13     6     9 ar  
    14     6    18 1   
    15     7    10 ar  
    16     7    19 1   
    17     8    20 1   
    18     8    21 1   
    19     8    22 1   
    20    10    13 1   
    21    11    12 1   
    22    11    14 2   
    23    12    23 1   
    24    12    24 1   
    25    12    25 1   
    26    13    26 1   
@<TRIPOS>SUBSTRUCTURE
     1 WHL         1 TEMP              0 ****  ****    0 ROOT
