@<TRIPOS>MOLECULE
WHM
   27    28     1     0     0
SMALL
abcg2


@<TRIPOS>ATOM
      1 C4         -11.5770     2.3830   -23.0160 ca         1 WHM      -0.077300
      2 C5         -10.5490     3.1880   -23.7720 c3         1 WHM       0.285100
      3 C6         -11.4740     2.9800   -26.1100 c5         1 WHM       0.220800
      4 C7         -10.8320     2.8330   -27.4960 c5         1 WHM      -0.084400
      5 C8          -9.6570     1.8790   -27.3360 c5         1 WHM      -0.314400
      6 N          -10.4210     2.7300   -25.1340 n3         1 WHM      -0.784500
      7 C          -13.4430     2.2700   -21.5300 ca         1 WHM       0.169000
      8 C1         -13.4540     0.8910   -21.5750 ca         1 WHM      -0.147000
      9 C2         -12.5000     0.2570   -22.3620 ca         1 WHM      -0.087000
     10 C3         -11.5680     0.9920   -23.0780 ca         1 WHM      -0.103000
     11 C9         -12.5280     3.0290   -22.2370 ca         1 WHM      -0.147000
     12 F          -14.3590     2.9050   -20.7790 f          1 WHM      -0.180000
     13 S           -8.9450     2.4180   -25.7890 s6         1 WHM       1.199100
     14 H3         -10.8080     4.2510   -23.7460 h1         1 WHM       0.059700
     15 H4          -9.5830     3.0930   -23.2690 h1         1 WHM       0.059700
     16 H5         -12.2750     2.2520   -25.9690 h1         1 WHM       0.057700
     17 H6         -11.8920     3.9800   -25.9760 h1         1 WHM       0.057700
     18 H7         -11.5470     2.4490   -28.2210 hc         1 WHM       0.072700
     19 H8         -10.4780     3.7990   -27.8560 hc         1 WHM       0.072700
     20 H9          -9.9720     0.8430   -27.2170 h1         1 WHM       0.111200
     21 H10         -8.9060     1.9510   -28.1200 h1         1 WHM       0.111200
     22 H          -14.1870     0.3260   -21.0150 ha         1 WHM       0.133000
     23 H1         -12.4890    -0.8240   -22.4140 ha         1 WHM       0.120000
     24 H2         -10.8310     0.4850   -23.6880 ha         1 WHM       0.131000
     25 H11        -12.5600     4.1100   -22.1820 ha         1 WHM       0.130000
     26 O           -8.1560     3.6290   -26.0010 o          1 WHM      -0.532500
     27 O1          -8.2930     1.3570   -25.0290 o          1 WHM      -0.532500
@<TRIPOS>BOND
     1     1     2 1   
     2     1    10 ar  
     3     1    11 ar  
     4     2     6 1   
     5     2    14 1   
     6     2    15 1   
     7     3     4 1   
     8     3     6 1   
     9     3    16 1   
    10     3    17 1   
    11     4     5 1   
    12     4    18 1   
    13     4    19 1   
    14     5    13 1   
    15     5    20 1   
    16     5    21 1   
    17     6    13 1   
    18     7     8 ar  
    19     7    11 ar  
    20     7    12 1   
    21     8     9 ar  
    22     8    22 1   
    23     9    10 ar  
    24     9    23 1   
    25    10    24 1   
    26    11    25 1   
    27    13    26 2   
    28    13    27 2   
@<TRIPOS>SUBSTRUCTURE
     1 WHM         1 TEMP              0 ****  ****    0 ROOT
