@<TRIPOS>MOLECULE
WHM
   27    28     1     0     0
SMALL
No Charge or Current Charge


@<TRIPOS>ATOM
      1 C4         -11.3230     2.3110   -23.0090 ca         1 WHM      -0.077300
      2 C5         -10.2570     3.2100   -23.6440 c3         1 WHM       0.285100
      3 C6         -11.4050     3.5200   -25.8860 c5         1 WHM       0.220800
      4 C7         -10.9310     3.3560   -27.3750 c5         1 WHM      -0.084400
      5 C8         -10.2210     1.9510   -27.4210 c5         1 WHM      -0.314400
      6 N          -10.1910     3.1690   -25.1200 n3         1 WHM      -0.784500
      7 C          -13.6420     1.9190   -22.3500 ca         1 WHM       0.169000
      8 C1         -13.2880     0.6800   -21.7950 ca         1 WHM      -0.147000
      9 C2         -11.9480     0.2570   -21.8330 ca         1 WHM      -0.087000
     10 C3         -10.9710     1.0720   -22.4330 ca         1 WHM      -0.103000
     11 C9         -12.6690     2.7340   -22.9490 ca         1 WHM      -0.147000
     12 F          -14.9270     2.3310   -22.3050 f          1 WHM      -0.180000
     13 S           -9.2780     1.9380   -25.8490 s6         1 WHM       1.199100
     14 H3         -10.4690     4.2410   -23.3290 h1         1 WHM       0.059700
     15 H4          -9.2760     2.9640   -23.2140 h1         1 WHM       0.059700
     16 H5         -12.2290     2.8260   -25.6720 h1         1 WHM       0.057700
     17 H6         -11.7530     4.5400   -25.6730 h1         1 WHM       0.057700
     18 H7         -11.7690     3.4180   -28.0780 hc         1 WHM       0.072700
     19 H8         -10.2340     4.1600   -27.6420 hc         1 WHM       0.072700
     20 H9         -10.9250     1.1140   -27.3610 h1         1 WHM       0.111200
     21 H10         -9.5180     1.8120   -28.2490 h1         1 WHM       0.111200
     22 H          -14.0470     0.0560   -21.3320 ha         1 WHM       0.133000
     23 H1         -11.6660    -0.6990   -21.3980 ha         1 WHM       0.120000
     24 H2          -9.9360     0.7360   -22.4520 ha         1 WHM       0.131000
     25 H11        -12.9620     3.6950   -23.3640 ha         1 WHM       0.130000
     26 O           -7.9230     2.4620   -26.0490 o          1 WHM      -0.532500
     27 O1          -9.5270     0.6820   -25.1360 o          1 WHM      -0.532500
@<TRIPOS>BOND
     1     1     2 1   
     2     1    10 ar  
     3     1    11 ar  
     4     2     6 1   
     5     2    14 1   
     6     2    15 1   
     7     3     4 1   
     8     3     6 1   
     9     3    16 1   
    10     3    17 1   
    11     4     5 1   
    12     4    18 1   
    13     4    19 1   
    14     5    13 1   
    15     5    20 1   
    16     5    21 1   
    17     6    13 1   
    18     7     8 ar  
    19     7    11 ar  
    20     7    12 1   
    21     8     9 ar  
    22     8    22 1   
    23     9    10 ar  
    24     9    23 1   
    25    10    24 1   
    26    11    25 1   
    27    13    26 2   
    28    13    27 2   
@<TRIPOS>SUBSTRUCTURE
     1 WHM         1 TEMP              0 ****  ****    0 ROOT
