@<TRIPOS>MOLECULE
WHN
   34    36     1     0     0
SMALL
No Charge or Current Charge


@<TRIPOS>ATOM
      1 C10          5.5260     8.2150    19.5860 ca         1 WHN      -0.082300
      2 C11          6.7220     9.0390    19.1010 c3         1 WHN      -0.025100
      3 C13          7.3340     7.3620    17.2920 cc         1 WHN       0.198900
      4 O14          7.2280     8.0400    16.1060 os         1 WHN      -0.353200
      5 C15          6.7860     7.5020    14.9350 c          1 WHN       0.682300
      6 C16          6.4140     6.1030    14.9850 cc         1 WHN      -0.414200
      7 C17          6.4990     5.3740    16.1240 cd         1 WHN       0.241100
      8 C18          6.9720     6.0270    17.2980 cd         1 WHN      -0.386000
      9 C1           6.6170     6.7840    22.8930 ca         1 WHN      -0.106000
     10 C2           5.4810     6.0410    23.2450 ca         1 WHN      -0.110000
     11 C3           4.3690     6.0190    22.3910 ca         1 WHN      -0.096000
     12 C4           6.6440     7.5070    21.6880 ca         1 WHN      -0.108000
     13 C5           5.5300     7.4960    20.8140 ca         1 WHN      -0.027000
     14 C6           4.3870     6.7390    21.1810 ca         1 WHN      -0.040000
     15 C7           3.2610     7.4070    19.1310 ca         1 WHN      -0.103000
     16 C8           4.3850     8.1570    18.7580 ca         1 WHN      -0.097000
     17 C9           3.2610     6.7000    20.3400 ca         1 WHN      -0.098000
     18 C12          7.8270     8.1650    18.4640 c3         1 WHN      -0.042200
     19 O19          6.7110     8.1620    13.9100 o          1 WHN      -0.497000
     20 O20          6.1510     4.0820    16.1610 oh         1 WHN      -0.516100
     21 H28          6.3950     9.7760    18.3570 hc         1 WHN       0.062700
     22 H29          7.1470     9.6340    19.9180 hc         1 WHN       0.062700
     23 H32          6.0640     5.6750    14.0550 ha         1 WHN       0.228000
     24 H33          7.0440     5.4800    18.2320 ha         1 WHN       0.206000
     25 H21          7.4800     6.8020    23.5550 ha         1 WHN       0.113000
     26 H22          5.4630     5.4820    24.1780 ha         1 WHN       0.115000
     27 H23          3.4910     5.4390    22.6700 ha         1 WHN       0.114000
     28 H24          7.5410     8.0700    21.4530 ha         1 WHN       0.110000
     29 H25          2.3900     7.3720    18.4800 ha         1 WHN       0.119000
     30 H26          4.3710     8.6940    17.8110 ha         1 WHN       0.121000
     31 H27          2.3850     6.1190    20.6220 ha         1 WHN       0.115000
     32 H31          8.6520     8.8120    18.1420 hc         1 WHN       0.070700
     33 H30          8.2440     7.4910    19.2200 hc         1 WHN       0.070700
     34 H34          6.2950     3.7800    17.0810 ho         1 WHN       0.476000
@<TRIPOS>BOND
     1     1     2 1   
     2     1    13 ar  
     3     1    16 ar  
     4     2    18 1   
     5     2    21 1   
     6     2    22 1   
     7     3     4 1   
     8     3     8 2   
     9     3    18 1   
    10     4     5 1   
    11     5     6 1   
    12     5    19 2   
    13     6     7 2   
    14     6    23 1   
    15     7     8 1   
    16     7    20 1   
    17     8    24 1   
    18     9    10 ar  
    19     9    12 ar  
    20     9    25 1   
    21    10    11 ar  
    22    10    26 1   
    23    11    14 ar  
    24    11    27 1   
    25    12    13 ar  
    26    12    28 1   
    27    13    14 ar  
    28    14    17 ar  
    29    15    16 ar  
    30    15    17 ar  
    31    15    29 1   
    32    16    30 1   
    33    17    31 1   
    34    18    32 1   
    35    18    33 1   
    36    20    34 1   
@<TRIPOS>SUBSTRUCTURE
     1 WHN         1 TEMP              0 ****  ****    0 ROOT
