@<TRIPOS>MOLECULE
WHN
   34    36     1     0     0
SMALL
abcg2


@<TRIPOS>ATOM
      1 C10          5.5500     8.2760    19.5300 ca         1 WHN      -0.082300
      2 C11          6.7680     9.0450    19.0880 c3         1 WHN      -0.025100
      3 C13          7.3550     7.3100    17.3670 cc         1 WHN       0.198900
      4 O14          7.0550     8.0470    16.2780 os         1 WHN      -0.353200
      5 C15          6.4830     7.4990    15.1200 c          1 WHN       0.682300
      6 C16          6.2300     6.1030    15.1490 cc         1 WHN      -0.414200
      7 C17          6.5480     5.3610    16.2540 cd         1 WHN       0.241100
      8 C18          7.1320     5.9800    17.3960 cd         1 WHN      -0.386000
      9 C1           6.5860     6.7950    22.8170 ca         1 WHN      -0.106000
     10 C2           5.4490     6.0200    23.1330 ca         1 WHN      -0.110000
     11 C3           4.3760     6.0010    22.2800 ca         1 WHN      -0.096000
     12 C4           6.6290     7.5270    21.6560 ca         1 WHN      -0.108000
     13 C5           5.5400     7.5290    20.7470 ca         1 WHN      -0.027000
     14 C6           4.3880     6.7470    21.0750 ca         1 WHN      -0.040000
     15 C7           3.3080     7.4630    19.0350 ca         1 WHN      -0.103000
     16 C8           4.4440     8.2320    18.7100 ca         1 WHN      -0.097000
     17 C9           3.2810     6.7300    20.1920 ca         1 WHN      -0.098000
     18 C12          7.8690     8.1260    18.5010 c3         1 WHN      -0.042200
     19 O19          6.2660     8.2830    14.2130 o          1 WHN      -0.497000
     20 O20          6.2920     4.0440    16.2410 oh         1 WHN      -0.516100
     21 H28          6.4750     9.7680    18.3260 hc         1 WHN       0.062700
     22 H29          7.2060     9.6090    19.9130 hc         1 WHN       0.062700
     23 H32          5.7830     5.6490    14.2770 ha         1 WHN       0.228000
     24 H33          7.3680     5.4080    18.2820 ha         1 WHN       0.206000
     25 H21          7.4280     6.8110    23.4960 ha         1 WHN       0.113000
     26 H22          5.4280     5.4460    24.0500 ha         1 WHN       0.115000
     27 H23          3.4960     5.4140    22.5150 ha         1 WHN       0.114000
     28 H24          7.5080     8.1170    21.4390 ha         1 WHN       0.110000
     29 H25          2.4620     7.4520    18.3600 ha         1 WHN       0.119000
     30 H26          4.4530     8.7950    17.7850 ha         1 WHN       0.121000
     31 H27          2.4160     6.1310    20.4510 ha         1 WHN       0.115000
     32 H31          8.6990     8.7460    18.1540 hc         1 WHN       0.070700
     33 H30          8.2470     7.4510    19.2670 hc         1 WHN       0.070700
     34 H34          6.5510     3.6320    17.0780 ho         1 WHN       0.476000
@<TRIPOS>BOND
     1     1     2 1   
     2     1    13 ar  
     3     1    16 ar  
     4     2    18 1   
     5     2    21 1   
     6     2    22 1   
     7     3     4 1   
     8     3     8 2   
     9     3    18 1   
    10     4     5 1   
    11     5     6 1   
    12     5    19 2   
    13     6     7 2   
    14     6    23 1   
    15     7     8 1   
    16     7    20 1   
    17     8    24 1   
    18     9    10 ar  
    19     9    12 ar  
    20     9    25 1   
    21    10    11 ar  
    22    10    26 1   
    23    11    14 ar  
    24    11    27 1   
    25    12    13 ar  
    26    12    28 1   
    27    13    14 ar  
    28    14    17 ar  
    29    15    16 ar  
    30    15    17 ar  
    31    15    29 1   
    32    16    30 1   
    33    17    31 1   
    34    18    32 1   
    35    18    33 1   
    36    20    34 1   
@<TRIPOS>SUBSTRUCTURE
     1 WHN         1 TEMP              0 ****  ****    0 ROOT
