@<TRIPOS>MOLECULE
WHP
   26    26     1     0     0
SMALL
abcg2


@<TRIPOS>ATOM
      1 C4         -11.0950     4.8890    -5.8130 ca         1 WHP      -0.098000
      2 C5         -12.0920     3.9260    -5.7900 ca         1 WHP      -0.113000
      3 C6         -11.7870     2.6090    -6.1010 ca         1 WHP      -0.095000
      4 C7         -10.4900     2.2680    -6.4490 ca         1 WHP      -0.102000
      5 C8          -9.5080     3.2480    -6.4720 ca         1 WHP       0.144000
      6 N           -8.9440     6.6650    -5.1710 n7         1 WHP      -0.909300
      7 C           -8.7580     6.3450    -7.5610 c3         1 WHP      -0.099100
      8 O           -7.6540     7.3670    -3.1050 o          1 WHP      -0.540000
      9 C1          -8.7220     5.6520    -6.2020 c3         1 WHP       0.283800
     10 C2         -10.1020     6.5260    -2.7370 c3         1 WHP      -0.346100
     11 C3          -9.7790     4.5720    -6.1410 ca         1 WHP      -0.084300
     12 O1          -8.1560     4.9390    -3.5140 o          1 WHP      -0.540000
     13 CL          -7.9070     2.7690    -6.9540 cl         1 WHP      -0.201000
     14 H8         -11.3390     5.9150    -5.5680 ha         1 WHP       0.121000
     15 H9         -13.1040     4.2060    -5.5290 ha         1 WHP       0.117000
     16 H10        -12.5540     1.8460    -6.0820 ha         1 WHP       0.120000
     17 H11        -10.2400     1.2460    -6.7000 ha         1 WHP       0.132000
     18 H4          -8.6670     7.6030    -5.4350 hn         1 WHP       0.489000
     19 H           -8.5990     5.6130    -8.3520 hc         1 WHP       0.048367
     20 H2          -9.7210     6.8270    -7.7300 hc         1 WHP       0.048367
     21 H1          -7.9710     7.0960    -7.6380 hc         1 WHP       0.048367
     22 H3          -7.7360     5.1980    -6.0850 h1         1 WHP       0.073700
     23 H6          -9.9220     6.3430    -1.6790 h1         1 WHP       0.103033
     24 H5         -10.4680     7.5400    -2.8840 h1         1 WHP       0.103033
     25 H7         -10.8210     5.8080    -3.1230 h1         1 WHP       0.103033
     26 S           -8.5600     6.3360    -3.5930 s6         1 WHP       1.191100
@<TRIPOS>BOND
     1     1     2 ar  
     2     1    11 ar  
     3     1    14 1   
     4     2     3 ar  
     5     2    15 1   
     6     3     4 ar  
     7     3    16 1   
     8     4     5 ar  
     9     4    17 1   
    10     5    11 ar  
    11     5    13 1   
    12     6     9 1   
    13     6    18 1   
    14     6    26 1   
    15     7     9 1   
    16     7    19 1   
    17     7    20 1   
    18     7    21 1   
    19     8    26 2   
    20     9    11 1   
    21     9    22 1   
    22    10    23 1   
    23    10    24 1   
    24    10    25 1   
    25    10    26 1   
    26    12    26 2   
@<TRIPOS>SUBSTRUCTURE
     1 WHP         1 TEMP              0 ****  ****    0 ROOT
