@<TRIPOS>MOLECULE
WHP
   26    26     1     0     0
SMALL
No Charge or Current Charge


@<TRIPOS>ATOM
      1 C4         -11.2490     5.2190    -6.0740 ca         1 WHP      -0.098000
      2 C5         -12.3310     4.3280    -5.9870 ca         1 WHP      -0.113000
      3 C6         -12.1000     2.9450    -5.9280 ca         1 WHP      -0.095000
      4 C7         -10.7840     2.4570    -5.9590 ca         1 WHP      -0.102000
      5 C8          -9.6960     3.3440    -6.0450 ca         1 WHP       0.144000
      6 N           -8.8990     6.8440    -5.2220 n7         1 WHP      -0.909300
      7 C           -8.7060     6.3590    -7.6040 c3         1 WHP      -0.099100
      8 O           -8.6730     7.9030    -2.9810 o          1 WHP      -0.540000
      9 C1          -8.7600     5.7450    -6.1930 c3         1 WHP       0.283800
     10 C2          -9.6970     5.4740    -3.0180 c3         1 WHP      -0.346100
     11 C3          -9.9180     4.7430    -6.0960 ca         1 WHP      -0.084300
     12 O1          -7.1500     5.9770    -3.6420 o          1 WHP      -0.540000
     13 Cl          -8.0730     2.6530    -6.0870 cl         1 WHP      -0.201000
     14 H8         -11.4440     6.2890    -6.1170 ha         1 WHP       0.121000
     15 H9         -13.3500     4.7100    -5.9660 ha         1 WHP       0.117000
     16 H10        -12.9370     2.2540    -5.8610 ha         1 WHP       0.120000
     17 H11        -10.6040     1.3860    -5.9170 ha         1 WHP       0.132000
     18 H4          -8.2180     7.5620    -5.4580 hn         1 WHP       0.489000
     19 H           -8.6070     5.5680    -8.3570 hc         1 WHP       0.048367
     20 H2          -9.6170     6.9280    -7.8220 hc         1 WHP       0.048367
     21 H1          -7.8450     7.0310    -7.7050 hc         1 WHP       0.048367
     22 H3          -7.8000     5.2340    -6.0400 h1         1 WHP       0.073700
     23 H6          -9.5630     5.4070    -1.9350 h1         1 WHP       0.103033
     24 H5         -10.6800     5.8820    -3.2720 h1         1 WHP       0.103033
     25 H7          -9.5280     4.5030    -3.4900 h1         1 WHP       0.103033
     26 S           -8.4690     6.6090    -3.6330 s6         1 WHP       1.191100
@<TRIPOS>BOND
     1     1     2 ar  
     2     1    11 ar  
     3     1    14 1   
     4     2     3 ar  
     5     2    15 1   
     6     3     4 ar  
     7     3    16 1   
     8     4     5 ar  
     9     4    17 1   
    10     5    11 ar  
    11     5    13 1   
    12     6     9 1   
    13     6    18 1   
    14     6    26 1   
    15     7     9 1   
    16     7    19 1   
    17     7    20 1   
    18     7    21 1   
    19     8    26 2   
    20     9    11 1   
    21     9    22 1   
    22    10    23 1   
    23    10    24 1   
    24    10    25 1   
    25    10    26 1   
    26    12    26 2   
@<TRIPOS>SUBSTRUCTURE
     1 WHP         1 TEMP              0 ****  ****    0 ROOT
