@<TRIPOS>MOLECULE
WHQ
   48    51     1     0     0
SMALL
abcg2


@<TRIPOS>ATOM
      1 C13        -22.2470     3.2890   -22.8940 ca         1 WHQ      -0.138000
      2 C15        -17.5880    -3.5190   -28.3000 cc         1 WHQ      -0.085000
      3 C17        -16.1050    -3.3250   -26.5230 cd         1 WHQ      -0.291000
      4 C21        -17.3400    -1.1350   -19.7220 c3         1 WHQ       0.142900
      5 O01        -16.2970    -6.8000   -29.2110 o          1 WHQ      -0.609100
      6 C11        -20.5110     4.5660   -21.8230 ca         1 WHQ      -0.101000
      7 C12        -21.7780     4.4900   -22.3770 ca         1 WHQ      -0.096000
      8 C16        -16.8620    -4.6650   -28.4410 cd         1 WHQ      -0.304600
      9 C19        -17.9590    -6.6580   -31.4380 c3         1 WHQ       0.094300
     10 C1         -17.1490    -2.7490   -27.1920 cc         1 WHQ      -0.000200
     11 C10        -19.7060     3.4360   -21.8070 ca         1 WHQ       0.092000
     12 C14        -21.4340     2.1800   -22.8340 ca         1 WHQ       0.162000
     13 C2         -18.0520    -1.0770   -25.5810 ca         1 WHQ      -0.054200
     14 C3         -18.6540     0.1720   -25.7650 ca         1 WHQ      -0.189900
     15 C4         -18.6660     0.3510   -27.1740 cc         1 WHQ       0.353800
     16 C5         -17.8920    -1.6230   -24.3060 ca         1 WHQ      -0.080000
     17 C6         -18.3510    -0.9020   -23.2260 ca         1 WHQ      -0.081300
     18 C7         -18.9420     0.3850   -23.4010 ca         1 WHQ       0.293000
     19 C8         -19.0860     0.9210   -24.6650 ca         1 WHQ      -0.102000
     20 C9         -20.1420     2.2070   -22.3070 ca         1 WHQ       0.248000
     21 F1         -21.8870     1.0110   -23.3010 f          1 WHQ      -0.163000
     22 N1         -17.7470    -1.5410   -26.8310 na         1 WHQ       0.186800
     23 N2         -18.1270    -0.6730   -27.7810 nd         1 WHQ      -0.506100
     24 N3         -19.3760     1.0520   -22.2530 nu         1 WHQ      -0.970000
     25 N4         -17.7760    -5.6240   -30.4460 ns         1 WHQ      -0.492900
     26 O1         -17.4100    -0.6830   -21.0540 os         1 WHQ      -0.462000
     27 S1         -15.6650    -4.8170   -27.2170 ss         1 WHQ       0.361000
     28 H7         -23.2380     3.2100   -23.3210 ha         1 WHQ       0.137000
     29 H8         -18.4120    -3.2220   -28.9340 ha         1 WHQ       0.148000
     30 H9         -15.5680    -2.9350   -25.6720 h4         1 WHQ       0.163000
     31 H21        -16.6890    -0.4580   -19.1730 h1         1 WHQ       0.032367
     32 H17        -18.3240    -1.1430   -19.2400 h1         1 WHQ       0.032367
     33 H16        -16.9240    -2.1470   -19.6590 h1         1 WHQ       0.032367
     34 H5         -20.1420     5.4980   -21.4190 ha         1 WHQ       0.133000
     35 H6         -22.4060     5.3700   -22.4050 ha         1 WHQ       0.124000
     36 H12        -18.7010    -6.3180   -32.1540 h1         1 WHQ       0.042367
     37 H13        -17.0340    -6.8720   -31.9750 h1         1 WHQ       0.042367
     38 H11        -18.3160    -7.5830   -30.9870 h1         1 WHQ       0.042367
     39 H15        -19.2540    -1.5540   -21.4020 h1         1 WHQ       0.037200
     40 H14        -17.8620    -2.5140   -21.9110 h1         1 WHQ       0.037200
     41 H1         -19.0450     1.1870   -27.7420 h4         1 WHQ       0.051800
     42 H2         -17.4420    -2.5950   -24.1530 ha         1 WHQ       0.125000
     43 H3         -19.5120     1.9040   -24.8160 ha         1 WHQ       0.127000
     44 H4         -18.7410     0.9840   -21.4690 hn         1 WHQ       0.509000
     45 H10        -18.2440    -4.7450   -30.5880 hn         1 WHQ       0.322500
     46 CL1        -18.1120     3.5420   -21.1460 cl         1 WHQ      -0.189000
     47 C18        -16.9570    -5.7850   -29.4010 c          1 WHQ       0.638700
     48 C20        -18.2510    -1.4900   -21.8500 c3         1 WHQ       0.199900
@<TRIPOS>BOND
     1     1     7 ar  
     2     1    12 ar  
     3     1    28 1   
     4     2     8 2   
     5     2    10 1   
     6     2    29 1   
     7     3    10 2   
     8     3    27 1   
     9     3    30 1   
    10     4    26 1   
    11     4    31 1   
    12     4    32 1   
    13     4    33 1   
    14     5    47 2   
    15     6     7 ar  
    16     6    11 ar  
    17     6    34 1   
    18     7    35 1   
    19     8    27 1   
    20     8    47 1   
    21     9    25 1   
    22     9    36 1   
    23     9    37 1   
    24     9    38 1   
    25    10    22 1   
    26    11    20 ar  
    27    11    46 1   
    28    12    20 ar  
    29    12    21 1   
    30    13    14 ar  
    31    13    16 ar  
    32    13    22 1   
    33    14    15 1   
    34    14    19 ar  
    35    15    23 2   
    36    15    41 1   
    37    16    17 ar  
    38    16    42 1   
    39    17    18 ar  
    40    17    48 1   
    41    18    19 ar  
    42    18    24 1   
    43    19    43 1   
    44    20    24 1   
    45    22    23 1   
    46    24    44 1   
    47    25    45 1   
    48    25    47 1   
    49    26    48 1   
    50    39    48 1   
    51    40    48 1   
@<TRIPOS>SUBSTRUCTURE
     1 WHQ         1 TEMP              0 ****  ****    0 ROOT
