@<TRIPOS>MOLECULE
WHQ
   48    51     1     0     0
SMALL
No Charge or Current Charge


@<TRIPOS>ATOM
      1 C13        -22.1470     3.7020   -22.7920 ca         1 WHQ      -0.138000
      2 C15        -17.5930    -3.7980   -28.3500 cc         1 WHQ      -0.085000
      3 C17        -16.3350    -3.3060   -26.4160 cd         1 WHQ      -0.291000
      4 C21        -17.2210    -0.9390   -19.8330 c3         1 WHQ       0.142900
      5 O01        -15.9370    -6.9250   -29.2680 o          1 WHQ      -0.609100
      6 C11        -20.5650     4.4710   -21.1180 ca         1 WHQ      -0.101000
      7 C12        -21.7510     4.6590   -21.8440 ca         1 WHQ      -0.096000
      8 C16        -16.7620    -4.8980   -28.3330 cd         1 WHQ      -0.304600
      9 C19        -17.7570    -6.7930   -31.4690 c3         1 WHQ       0.094300
     10 C1         -17.3650    -2.9430   -27.2470 cc         1 WHQ      -0.000200
     11 C10        -19.7660     3.3360   -21.3450 ca         1 WHQ       0.092000
     12 C14        -21.3530     2.5660   -23.0260 ca         1 WHQ       0.162000
     13 C2         -18.1910    -1.1550   -25.7790 ca         1 WHQ      -0.054200
     14 C3         -18.7380     0.0740   -25.9810 ca         1 WHQ      -0.189900
     15 C4         -18.8700     0.2230   -27.4050 cc         1 WHQ       0.353800
     16 C5         -18.0550    -1.6760   -24.4790 ca         1 WHQ      -0.080000
     17 C6         -18.4230    -0.8600   -23.3800 ca         1 WHQ      -0.081300
     18 C7         -18.9680     0.4360   -23.6050 ca         1 WHQ       0.293000
     19 C8         -19.1290     0.9100   -24.9260 ca         1 WHQ      -0.102000
     20 C9         -20.1320     2.3720   -22.3190 ca         1 WHQ       0.248000
     21 F1         -21.8070     1.6430   -23.9080 f          1 WHQ      -0.163000
     22 N1         -17.9720    -1.6960   -27.0490 na         1 WHQ       0.186800
     23 N2         -18.4420    -0.8610   -28.0650 nd         1 WHQ      -0.506100
     24 N3         -19.2980     1.2420   -22.5100 nu         1 WHQ      -0.970000
     25 N4         -17.6160    -5.8470   -30.3600 ns         1 WHQ      -0.492900
     26 O1         -17.4210    -0.5340   -21.1970 os         1 WHQ      -0.462000
     27 S1         -15.6670    -4.8660   -26.9340 ss         1 WHQ       0.361000
     28 H7         -23.0760     3.8330   -23.3420 ha         1 WHQ       0.137000
     29 H8         -18.3400    -3.5700   -29.1050 ha         1 WHQ       0.148000
     30 H9         -15.8900    -2.7780   -25.5830 h4         1 WHQ       0.163000
     31 H21        -16.5670    -0.2250   -19.3160 h1         1 WHQ       0.032367
     32 H17        -18.1770    -0.9790   -19.2940 h1         1 WHQ       0.032367
     33 H16        -16.7520    -1.9300   -19.7840 h1         1 WHQ       0.032367
     34 H5         -20.2640     5.2040   -20.3730 ha         1 WHQ       0.133000
     35 H6         -22.3690     5.5380   -21.6640 ha         1 WHQ       0.124000
     36 H12        -18.5490    -6.4490   -32.1460 h1         1 WHQ       0.042367
     37 H13        -16.8100    -6.8570   -32.0220 h1         1 WHQ       0.042367
     38 H11        -18.0190    -7.7840   -31.0780 h1         1 WHQ       0.042367
     39 H15        -19.2650    -1.4860   -21.5000 h1         1 WHQ       0.037200
     40 H14        -17.8430    -2.4210   -21.9990 h1         1 WHQ       0.037200
     41 H1         -19.2760     1.0350   -27.9940 h4         1 WHQ       0.051800
     42 H2         -17.6980    -2.6870   -24.3060 ha         1 WHQ       0.125000
     43 H3         -19.5400     1.8940   -25.1260 ha         1 WHQ       0.127000
     44 H4         -18.7130     1.0180   -21.6970 hn         1 WHQ       0.509000
     45 H10        -18.2180    -5.0350   -30.3330 hn         1 WHQ       0.322500
     46 Cl1        -18.2900     3.1420   -20.3910 cl         1 WHQ      -0.189000
     47 C18        -16.7120    -5.9830   -29.3350 c          1 WHQ       0.638700
     48 C20        -18.2710    -1.4110   -21.9620 c3         1 WHQ       0.199900
@<TRIPOS>BOND
     1     1     7 ar  
     2     1    12 ar  
     3     1    28 1   
     4     2     8 2   
     5     2    10 1   
     6     2    29 1   
     7     3    10 2   
     8     3    27 1   
     9     3    30 1   
    10     4    26 1   
    11     4    31 1   
    12     4    32 1   
    13     4    33 1   
    14     5    47 2   
    15     6     7 ar  
    16     6    11 ar  
    17     6    34 1   
    18     7    35 1   
    19     8    27 1   
    20     8    47 1   
    21     9    25 1   
    22     9    36 1   
    23     9    37 1   
    24     9    38 1   
    25    10    22 1   
    26    11    20 ar  
    27    11    46 1   
    28    12    20 ar  
    29    12    21 1   
    30    13    14 ar  
    31    13    16 ar  
    32    13    22 1   
    33    14    15 1   
    34    14    19 ar  
    35    15    23 2   
    36    15    41 1   
    37    16    17 ar  
    38    16    42 1   
    39    17    18 ar  
    40    17    48 1   
    41    18    19 ar  
    42    18    24 1   
    43    19    43 1   
    44    20    24 1   
    45    22    23 1   
    46    24    44 1   
    47    25    45 1   
    48    25    47 1   
    49    26    48 1   
    50    39    48 1   
    51    40    48 1   
@<TRIPOS>SUBSTRUCTURE
     1 WHQ         1 TEMP              0 ****  ****    0 ROOT
