@<TRIPOS>MOLECULE
WHR
   35    37     1     0     0
SMALL
abcg2


@<TRIPOS>ATOM
      1 C1           4.2070     6.7850    22.0380 ca         1 WHR       0.106000
      2 C2           5.3400     7.5620    22.3370 ca         1 WHR      -0.125000
      3 C3           6.2470     7.8210    21.3400 ca         1 WHR      -0.078000
      4 C4           3.9810     6.2790    20.7850 ca         1 WHR      -0.077000
      5 CL5          3.0540     6.4600    23.3180 cl         1 WHR      -0.250000
      6 C6           4.9040     6.5400    19.7450 ca         1 WHR      -0.065000
      7 C7           6.0560     7.3230    20.0320 ca         1 WHR       0.258000
      8 N8           6.9920     7.6150    19.0850 nb         1 WHR      -0.710000
      9 C9           6.8250     7.1570    17.8640 ca         1 WHR       0.401300
     10 C10          5.6980     6.3660    17.4820 ca         1 WHR      -0.142600
     11 C11          4.7370     6.0580    18.4140 ca         1 WHR      -0.054300
     12 C12          3.5150     5.2510    18.0530 c3         1 WHR       0.010200
     13 C13          5.5820     5.8950    16.0390 c          1 WHR       0.706600
     14 O14          5.0100     6.6790    15.2450 o          1 WHR      -0.707000
     15 O15          6.0720     4.7710    15.7780 o          1 WHR      -0.707000
     16 C16          7.8720     7.5010    16.8430 c3         1 WHR      -0.147400
     17 C17          2.2450     6.0780    18.0270 ca         1 WHR      -0.044300
     18 C18          1.0210     5.6090    18.5040 ca         1 WHR       0.118000
     19 C19         -0.1350     6.3820    18.4710 ca         1 WHR      -0.116000
     20 C20         -0.0830     7.6630    17.9410 ca         1 WHR      -0.121000
     21 C21          1.1200     8.1560    17.4460 ca         1 WHR      -0.112000
     22 C22          2.2620     7.3700    17.4930 ca         1 WHR      -0.076000
     23 CL23         0.8900     3.9910    19.1820 cl         1 WHR      -0.243000
     24 H1           5.4860     7.9440    23.3370 ha         1 WHR       0.113000
     25 H2           7.1310     8.4140    21.5380 ha         1 WHR       0.119000
     26 H3           3.0990     5.6860    20.6040 ha         1 WHR       0.132000
     27 H4           3.6580     4.7920    17.0740 hc         1 WHR       0.080200
     28 H5           3.4010     4.4290    18.7580 hc         1 WHR       0.080200
     29 H7           8.6600     8.0960    17.2990 hc         1 WHR       0.055033
     30 H8           8.3060     6.5940    16.4170 hc         1 WHR       0.055033
     31 H9           7.4300     8.0620    16.0170 hc         1 WHR       0.055033
     32 H10         -1.0600     5.9790    18.8600 ha         1 WHR       0.114000
     33 H11         -0.9800     8.2680    17.9160 ha         1 WHR       0.102000
     34 H12          1.1690     9.1530    17.0260 ha         1 WHR       0.111000
     35 H13          3.1960     7.7520    17.1040 ha         1 WHR       0.156000
@<TRIPOS>BOND
     1     1     2 ar  
     2     1     4 ar  
     3     1     5 1   
     4     2     3 ar  
     5     2    24 1   
     6     3     7 ar  
     7     3    25 1   
     8     4     6 ar  
     9     4    26 1   
    10     6     7 ar  
    11     6    11 ar  
    12     7     8 ar  
    13     8     9 ar  
    14     9    10 ar  
    15     9    16 1   
    16    10    11 ar  
    17    10    13 1   
    18    11    12 1   
    19    12    17 1   
    20    12    27 1   
    21    12    28 1   
    22    13    14 1   
    23    13    15 1   
    24    16    29 1   
    25    16    30 1   
    26    16    31 1   
    27    17    18 ar  
    28    17    22 ar  
    29    18    19 ar  
    30    18    23 1   
    31    19    20 ar  
    32    19    32 1   
    33    20    21 ar  
    34    20    33 1   
    35    21    22 ar  
    36    21    34 1   
    37    22    35 1   
@<TRIPOS>SUBSTRUCTURE
     1 WHR         1 TEMP              0 ****  ****    0 ROOT
