@<TRIPOS>MOLECULE
WHR
   35    37     1     0     0
SMALL
No Charge or Current Charge


@<TRIPOS>ATOM
      1 C1           4.1990     6.7930    22.0660 ca         1 WHR       0.106000
      2 C2           5.3410     7.5510    22.3510 ca         1 WHR      -0.125000
      3 C3           6.2740     7.8090    21.3340 ca         1 WHR      -0.078000
      4 C4           3.9880     6.2940    20.7730 ca         1 WHR      -0.077000
      5 Cl5          3.0260     6.4660    23.3340 cl         1 WHR      -0.250000
      6 C6           4.9230     6.5500    19.7380 ca         1 WHR      -0.065000
      7 C7           6.0840     7.3200    20.0270 ca         1 WHR       0.258000
      8 N8           7.0130     7.6000    19.0890 nb         1 WHR      -0.710000
      9 C9           6.8370     7.1380    17.8320 ca         1 WHR       0.401300
     10 C10          5.7220     6.3720    17.4530 ca         1 WHR      -0.142600
     11 C11          4.7300     6.0610    18.4180 ca         1 WHR      -0.054300
     12 C12          3.4890     5.2340    18.0380 c3         1 WHR       0.010200
     13 C13          5.6280     5.9200    16.0340 c          1 WHR       0.706600
     14 O14          5.0660     6.6530    15.2360 o          1 WHR      -0.707000
     15 O15          6.1050     4.8330    15.7480 o          1 WHR      -0.707000
     16 C16          7.9380     7.5090    16.8490 c3         1 WHR      -0.147400
     17 C17          2.2010     6.0690    18.0200 ca         1 WHR      -0.044300
     18 C18          0.9780     5.5810    18.5480 ca         1 WHR       0.118000
     19 C19         -0.1780     6.3810    18.5140 ca         1 WHR      -0.116000
     20 C20         -0.1360     7.6670    17.9540 ca         1 WHR      -0.121000
     21 C21          1.0650     8.1550    17.4190 ca         1 WHR      -0.112000
     22 C22          2.2240     7.3610    17.4490 ca         1 WHR      -0.076000
     23 Cl23         0.8400     3.9700    19.2560 cl         1 WHR      -0.243000
     24 H1           5.5040     7.9370    23.3540 ha         1 WHR       0.113000
     25 H2           7.1590     8.3980    21.5610 ha         1 WHR       0.119000
     26 H3           3.0910     5.7100    20.5970 ha         1 WHR       0.132000
     27 H4           3.6030     4.7560    17.0600 hc         1 WHR       0.080200
     28 H5           3.4190     4.3900    18.7330 hc         1 WHR       0.080200
     29 H7           8.7310     8.1010    17.3230 hc         1 WHR       0.055033
     30 H8           8.4060     6.6120    16.4290 hc         1 WHR       0.055033
     31 H9           7.5370     8.1030    16.0190 hc         1 WHR       0.055033
     32 H10         -1.1100     6.0000    18.9230 ha         1 WHR       0.114000
     33 H11         -1.0330     8.2820    17.9300 ha         1 WHR       0.102000
     34 H12          1.1000     9.1490    16.9790 ha         1 WHR       0.111000
     35 H13          3.1440     7.7560    17.0240 ha         1 WHR       0.156000
@<TRIPOS>BOND
     1     1     2 ar  
     2     1     4 ar  
     3     1     5 1   
     4     2     3 ar  
     5     2    24 1   
     6     3     7 ar  
     7     3    25 1   
     8     4     6 ar  
     9     4    26 1   
    10     6     7 ar  
    11     6    11 ar  
    12     7     8 ar  
    13     8     9 ar  
    14     9    10 ar  
    15     9    16 1   
    16    10    11 ar  
    17    10    13 1   
    18    11    12 1   
    19    12    17 1   
    20    12    27 1   
    21    12    28 1   
    22    13    14 1   
    23    13    15 1   
    24    16    29 1   
    25    16    30 1   
    26    16    31 1   
    27    17    18 ar  
    28    17    22 ar  
    29    18    19 ar  
    30    18    23 1   
    31    19    20 ar  
    32    19    32 1   
    33    20    21 ar  
    34    20    33 1   
    35    21    22 ar  
    36    21    34 1   
    37    22    35 1   
@<TRIPOS>SUBSTRUCTURE
     1 WHR         1 TEMP              0 ****  ****    0 ROOT
