@<TRIPOS>MOLECULE
WHS
   27    28     1     0     0
SMALL
No Charge or Current Charge


@<TRIPOS>ATOM
      1 N1          -7.3980    12.6770   -19.3550 nc         1 WHS      -0.755000
      2 C4          -4.4820    11.6350   -17.4600 c3         1 WHS       0.223800
      3 C5          -4.5860    10.0770   -17.4180 c5         1 WHS       0.147300
      4 C6          -5.6940     9.4990   -16.4730 c5         1 WHS      -0.101400
      5 C7          -6.6400     8.7490   -17.4530 c5         1 WHS      -0.111400
      6 C8          -5.6380     8.3360   -18.5490 c5         1 WHS       0.156600
      7 N           -5.7210    12.3070   -17.9100 nu         1 WHS      -0.934100
      8 C           -9.0630    13.0800   -21.1320 c3         1 WHS      -0.119400
      9 O           -4.8890     9.5470   -18.7330 os         1 WHS      -0.460000
     10 C1          -7.6560    12.7970   -20.6970 cc         1 WHS       0.337300
     11 C2          -6.5790    12.6470   -21.5370 cd         1 WHS      -0.306000
     12 C3          -6.1250    12.4210   -19.1890 cd         1 WHS       0.718300
     13 S           -5.1120    12.3330   -20.6250 ss         1 WHS      -0.072400
     14 H5          -3.6440    11.9080   -18.1160 h1         1 WHS       0.055700
     15 H6          -4.2220    11.9870   -16.4520 h1         1 WHS       0.055700
     16 H7          -3.6050     9.6860   -17.1130 h1         1 WHS       0.057700
     17 H9          -5.2530     8.8100   -15.7430 hc         1 WHS       0.051200
     18 H8          -6.2210    10.2710   -15.9010 hc         1 WHS       0.051200
     19 H11         -7.1420     7.8910   -16.9920 hc         1 WHS       0.060200
     20 H10         -7.4130     9.4130   -17.8580 hc         1 WHS       0.060200
     21 H13         -4.9650     7.5340   -18.2180 h1         1 WHS       0.046700
     22 H12         -6.1220     8.0410   -19.4900 h1         1 WHS       0.046700
     23 H4          -6.5250    12.2900   -17.2920 hn         1 WHS       0.497000
     24 H2          -9.7410    12.2850   -20.8000 hc         1 WHS       0.046033
     25 H1          -9.4170    14.0290   -20.7130 hc         1 WHS       0.046033
     26 H           -9.1310    13.1470   -22.2240 hc         1 WHS       0.046033
     27 H3          -6.5640    12.7050   -22.6180 h4         1 WHS       0.155000
@<TRIPOS>BOND
     1     1    10 1   
     2     1    12 2   
     3     2     3 1   
     4     2     7 1   
     5     2    14 1   
     6     2    15 1   
     7     3     4 1   
     8     3     9 1   
     9     3    16 1   
    10     4     5 1   
    11     4    17 1   
    12     4    18 1   
    13     5     6 1   
    14     5    19 1   
    15     5    20 1   
    16     6     9 1   
    17     6    21 1   
    18     6    22 1   
    19     7    12 1   
    20     7    23 1   
    21     8    10 1   
    22     8    24 1   
    23     8    25 1   
    24     8    26 1   
    25    10    11 2   
    26    11    13 1   
    27    11    27 1   
    28    12    13 1   
@<TRIPOS>SUBSTRUCTURE
     1 WHS         1 TEMP              0 ****  ****    0 ROOT
