@<TRIPOS>MOLECULE
WHS
   27    28     1     0     0
SMALL
abcg2


@<TRIPOS>ATOM
      1 N1          -7.5810    12.7110   -19.4060 nc         1 WHS      -0.755000
      2 C4          -4.6830    11.5970   -17.4480 c3         1 WHS       0.223800
      3 C5          -4.4650    10.0980   -17.3050 c5         1 WHS       0.147300
      4 C6          -5.4970     9.3920   -16.4160 c5         1 WHS      -0.101400
      5 C7          -6.4480     8.7420   -17.4180 c5         1 WHS      -0.111400
      6 C8          -5.5190     8.4520   -18.5860 c5         1 WHS       0.156600
      7 N           -6.0200    11.9700   -17.8410 nu         1 WHS      -0.934100
      8 C           -8.9930    13.4250   -21.3030 c3         1 WHS      -0.119400
      9 O           -4.5560     9.4910   -18.5850 os         1 WHS      -0.460000
     10 C1          -7.7500    12.8000   -20.7650 cc         1 WHS       0.337300
     11 C2          -6.7360    12.3050   -21.5120 cd         1 WHS      -0.306000
     12 C3          -6.4480    12.1460   -19.1060 cd         1 WHS       0.718300
     13 S           -5.5040    11.6460   -20.4860 ss         1 WHS      -0.072400
     14 H5          -3.9550    12.0080   -18.1580 h1         1 WHS       0.055700
     15 H6          -4.4740    12.0720   -16.4890 h1         1 WHS       0.055700
     16 H7          -3.4520     9.9580   -16.9070 h1         1 WHS       0.057700
     17 H9          -5.0070     8.6300   -15.8070 hc         1 WHS       0.051200
     18 H8          -6.0000    10.0780   -15.7330 hc         1 WHS       0.051200
     19 H11         -6.9180     7.8380   -17.0320 hc         1 WHS       0.060200
     20 H10         -7.2400     9.4320   -17.7120 hc         1 WHS       0.060200
     21 H13         -5.0310     7.4770   -18.4600 h1         1 WHS       0.046700
     22 H12         -6.0290     8.4500   -19.5510 h1         1 WHS       0.046700
     23 H4          -6.6300    12.3480   -17.1350 hn         1 WHS       0.497000
     24 H2          -9.8800    12.9000   -20.9460 hc         1 WHS       0.046033
     25 H1          -9.0810    14.4630   -20.9780 hc         1 WHS       0.046033
     26 H           -9.0030    13.4090   -22.3910 hc         1 WHS       0.046033
     27 H3          -6.6480    12.2640   -22.5860 h4         1 WHS       0.155000
@<TRIPOS>BOND
     1     1    10 1   
     2     1    12 2   
     3     2     3 1   
     4     2     7 1   
     5     2    14 1   
     6     2    15 1   
     7     3     4 1   
     8     3     9 1   
     9     3    16 1   
    10     4     5 1   
    11     4    17 1   
    12     4    18 1   
    13     5     6 1   
    14     5    19 1   
    15     5    20 1   
    16     6     9 1   
    17     6    21 1   
    18     6    22 1   
    19     7    12 1   
    20     7    23 1   
    21     8    10 1   
    22     8    24 1   
    23     8    25 1   
    24     8    26 1   
    25    10    11 2   
    26    11    13 1   
    27    11    27 1   
    28    12    13 1   
@<TRIPOS>SUBSTRUCTURE
     1 WHS         1 TEMP              0 ****  ****    0 ROOT
