@<TRIPOS>MOLECULE
WHU
   40    42     1     0     0
SMALL
bcc


@<TRIPOS>ATOM
      1 N01          3.6260     2.9710     2.3040 nv         1 WHU      -0.943500
      2 C02          3.6760     2.2990     1.1320 cc         1 WHU       0.688400
      3 N03          4.3090     2.7190     0.0500 nd         1 WHU      -0.727000
      4 C04          4.1440     1.7320    -0.8500 cd         1 WHU       0.508300
      5 CL           4.8370     1.8680    -2.4030 cl         1 WHU      -0.102000
      6 C06          3.4230     0.6810    -0.3540 cc         1 WHU      -0.319200
      7 N07          3.1360     1.0820     0.9470 na         1 WHU      -0.328900
      8 C08          3.0170    -0.5740    -0.9800 c          1 WHU       0.732700
      9 O09          3.0790    -0.7250    -2.1920 o          1 WHU      -0.564100
     10 N10          2.5690    -1.5320    -0.1340 ns         1 WHU      -0.592900
     11 C11          1.8960    -2.7360    -0.5620 c3         1 WHU       0.154300
     12 C12          0.4540    -2.7160    -0.1250 ca         1 WHU      -0.134300
     13 C13         -0.0450    -3.5910     0.8320 ca         1 WHU      -0.101000
     14 C14         -1.3530    -3.5050     1.2860 ca         1 WHU      -0.109000
     15 C15         -2.1820    -2.5060     0.7990 ca         1 WHU      -0.007900
     16 BR          -3.9390    -2.3270     1.4270 br         1 WHU      -0.048100
     17 C17         -1.7170    -1.6210    -0.1670 ca         1 WHU       0.069100
     18 O18         -2.5360    -0.6690    -0.6870 os         1 WHU      -0.217200
     19 C19         -2.1930     0.6430    -0.5700 ca         1 WHU       0.143100
     20 C20         -1.3040     1.1070     0.3910 ca         1 WHU      -0.172000
     21 C21         -1.0130     2.4620     0.4330 ca         1 WHU       0.058400
     22 CL2          0.1130     3.0350     1.6090 cl         1 WHU      -0.117400
     23 C23         -1.5950     3.3640    -0.4370 ca         1 WHU      -0.107000
     24 C24         -2.4990     2.8680    -1.3740 ca         1 WHU       0.030000
     25 C27         -2.8040     1.5150    -1.4570 ca         1 WHU      -0.104000
     26 C25         -3.1210     3.7770    -2.2850 cg         1 WHU       0.226800
     27 N26         -3.6250     4.5110    -3.0150 n1         1 WHU      -0.338800
     28 C28         -0.4150    -1.7620    -0.6240 ca         1 WHU       0.130900
     29 F29          0.0070    -0.9070    -1.5590 f          1 WHU      -0.109900
     30 H011         3.7810     3.9640     2.2480 hn         1 WHU       0.426800
     31 H012         2.9350     2.7000     2.9830 hn         1 WHU       0.426800
     32 H07          2.5310     0.6130     1.6030 hn         1 WHU       0.298700
     33 H10          2.6910    -1.4230     0.8600 hn         1 WHU       0.305500
     34 H111         1.9860    -2.8230    -1.6430 h1         1 WHU       0.076700
     35 H112         2.3880    -3.6080    -0.1290 h1         1 WHU       0.076700
     36 H13          0.6060    -4.3520     1.2420 ha         1 WHU       0.144000
     37 H14         -1.7110    -4.1990     2.0330 ha         1 WHU       0.159000
     38 H20         -0.8420     0.4370     1.1050 ha         1 WHU       0.153000
     39 H27         -3.4980     1.1450    -2.1990 ha         1 WHU       0.170000
     40 H23         -1.3580     4.4170    -0.3970 ha         1 WHU       0.166000
@<TRIPOS>BOND
     1     1     2 1   
     2     1    30 1   
     3     1    31 1   
     4     2     3 2   
     5     2     7 1   
     6     3     4 1   
     7     4     5 1   
     8     4     6 2   
     9     6     7 1   
    10     6     8 1   
    11     7    32 1   
    12     8     9 2   
    13     8    10 1   
    14    10    11 1   
    15    10    33 1   
    16    11    12 1   
    17    11    34 1   
    18    11    35 1   
    19    12    13 ar  
    20    12    28 ar  
    21    13    14 ar  
    22    13    36 1   
    23    14    15 ar  
    24    14    37 1   
    25    15    16 1   
    26    15    17 ar  
    27    17    18 1   
    28    17    28 ar  
    29    18    19 1   
    30    19    20 ar  
    31    19    25 ar  
    32    20    21 ar  
    33    20    38 1   
    34    21    22 1   
    35    21    23 ar  
    36    23    24 ar  
    37    23    40 1   
    38    24    25 ar  
    39    24    26 1   
    40    25    39 1   
    41    26    27 3   
    42    28    29 1   
@<TRIPOS>SUBSTRUCTURE
     1 WHU         1 TEMP              0 ****  ****    0 ROOT
