@<TRIPOS>MOLECULE
WHU
   40    42     1     0     0
SMALL
No Charge or Current Charge


@<TRIPOS>ATOM
      1 N01          3.6780     3.3220     1.8950 nv         1 WHU      -1.053900
      2 C02          4.0390     2.3430     1.0790 cc         1 WHU       0.688400
      3 N03          5.1420     2.3660     0.4020 nd         1 WHU      -0.727000
      4 C04          5.1220     1.1880    -0.3210 cd         1 WHU       0.443000
      5 Cl           6.4240     0.7780    -1.3980 cl         1 WHU      -0.102000
      6 C06          3.9800     0.4590    -0.0600 cc         1 WHU      -0.304600
      7 N07          3.2870     1.2400     0.8660 na         1 WHU      -0.328500
      8 C08          3.6520    -0.8400    -0.6860 c          1 WHU       0.665700
      9 O09          4.3330    -1.4190    -1.5160 o          1 WHU      -0.564100
     10 N10          2.4600    -1.3480    -0.2410 ns         1 WHU      -0.525900
     11 C11          1.8180    -2.5520    -0.7650 c3         1 WHU       0.154300
     12 C12          0.3770    -2.6210    -0.2820 ca         1 WHU      -0.134300
     13 C13         -0.0130    -3.5960     0.6580 ca         1 WHU      -0.083000
     14 C14         -1.3320    -3.6250     1.1440 ca         1 WHU      -0.091000
     15 C15         -2.2650    -2.6660     0.7140 ca         1 WHU      -0.007900
     16 Br          -4.0430    -2.6980     1.4310 br         1 WHU      -0.048100
     17 C17         -1.8850    -1.6800    -0.2160 ca         1 WHU       0.069100
     18 O18         -2.7960    -0.7120    -0.5900 os         1 WHU      -0.217200
     19 C19         -2.5270     0.6360    -0.4790 ca         1 WHU       0.143100
     20 C20         -1.5820     1.1220     0.4480 ca         1 WHU      -0.154000
     21 C21         -1.3070     2.4950     0.5120 ca         1 WHU       0.150000
     22 Cl2         -0.0930     3.0870     1.6400 cl         1 WHU      -0.209000
     23 C23         -1.9870     3.3940    -0.3260 ca         1 WHU      -0.089000
     24 C24         -2.9500     2.9160    -1.2380 ca         1 WHU       0.030000
     25 C27         -3.2160     1.5340    -1.3100 ca         1 WHU      -0.086000
     26 C25         -3.6500     3.8340    -2.0950 cg         1 WHU       0.316000
     27 N26         -4.2270     4.5770    -2.7870 n1         1 WHU      -0.428000
     28 C28         -0.5710    -1.6800    -0.7350 ca         1 WHU       0.166000
     29 F29         -0.2070    -0.7550    -1.6570 f          1 WHU      -0.145000
     30 H011         4.2040     4.1800     1.7810 hn         1 WHU       0.482000
     31 H012         2.6860     3.4320     2.0710 hn         1 WHU       0.482000
     32 H07          2.4000     1.0550     1.3140 hn         1 WHU       0.349000
     33 H10          1.9690    -0.8110     0.4580 hn         1 WHU       0.305500
     34 H111         1.8410    -2.5310    -1.8630 h1         1 WHU       0.076700
     35 H112         2.3800    -3.4350    -0.4290 h1         1 WHU       0.076700
     36 H13          0.7070    -4.3280     1.0200 ha         1 WHU       0.126000
     37 H14         -1.6250    -4.3800     1.8700 ha         1 WHU       0.141000
     38 H20         -1.0540     0.4450     1.1130 ha         1 WHU       0.135000
     39 H27         -3.9490     1.1520    -2.0170 ha         1 WHU       0.152000
     40 H23         -1.7650     4.4560    -0.2650 ha         1 WHU       0.148000
@<TRIPOS>BOND
     1     1     2 1   
     2     1    30 1   
     3     1    31 1   
     4     2     3 2   
     5     2     7 1   
     6     3     4 1   
     7     4     5 1   
     8     4     6 2   
     9     6     7 1   
    10     6     8 1   
    11     7    32 1   
    12     8     9 2   
    13     8    10 1   
    14    10    11 1   
    15    10    33 1   
    16    11    12 1   
    17    11    34 1   
    18    11    35 1   
    19    12    13 ar  
    20    12    28 ar  
    21    13    14 ar  
    22    13    36 1   
    23    14    15 ar  
    24    14    37 1   
    25    15    16 1   
    26    15    17 ar  
    27    17    18 1   
    28    17    28 ar  
    29    18    19 1   
    30    19    20 ar  
    31    19    25 ar  
    32    20    21 ar  
    33    20    38 1   
    34    21    22 1   
    35    21    23 ar  
    36    23    24 ar  
    37    23    40 1   
    38    24    25 ar  
    39    24    26 1   
    40    25    39 1   
    41    26    27 3   
    42    28    29 1   
@<TRIPOS>SUBSTRUCTURE
     1 WHU         1 TEMP              0 ****  ****    0 ROOT
