@<TRIPOS>MOLECULE
WHV
   25    25     1     0     0
SMALL
No Charge or Current Charge


@<TRIPOS>ATOM
      1 N1          -4.1990     9.4360   -17.5210 nc         1 WHV      -0.651000
      2 C4          -5.0520     9.4320   -16.5070 cd         1 WHV       0.447700
      3 C5          -4.6180     9.0410   -15.1250 c3         1 WHV      -0.127400
      4 C6          -4.8420     9.8290   -18.6680 cc         1 WHV       0.304300
      5 C7          -4.0470     9.9030   -19.9410 c3         1 WHV      -0.121400
      6 N           -7.7190    11.8750   -19.2560 n7         1 WHV      -0.860400
      7 C           -6.7790    13.0150   -19.2320 c3         1 WHV       0.148100
      8 C1          -7.1360    10.5740   -19.6080 c3         1 WHV       0.249800
      9 C2          -8.2680     9.5550   -19.8330 c3         1 WHV      -0.087100
     10 C3          -6.1800    10.1220   -18.5340 cd         1 WHV      -0.265300
     11 S           -6.7060     9.9030   -16.8690 ss         1 WHV      -0.066400
     12 H9          -5.4520     9.1050   -14.4170 hc         1 WHV       0.057367
     13 H10         -4.2430     8.0110   -15.1110 hc         1 WHV       0.057367
     14 H8          -3.8200     9.7000   -14.7660 hc         1 WHV       0.057367
     15 H11         -3.0000     9.6170   -19.7830 hc         1 WHV       0.049700
     16 H13         -4.4680     9.2320   -20.6980 hc         1 WHV       0.049700
     17 H12         -4.0600    10.9220   -20.3440 hc         1 WHV       0.049700
     18 H2          -7.3080    13.9440   -18.9800 h1         1 WHV       0.032033
     19 H           -5.9890    12.8630   -18.4840 h1         1 WHV       0.032033
     20 H1          -6.3030    13.1500   -20.2120 h1         1 WHV       0.032033
     21 H4          -6.5880    10.6610   -20.5580 h1         1 WHV       0.069700
     22 H5          -7.8500     8.5760   -20.0990 hc         1 WHV       0.043367
     23 H6          -8.8800     9.4340   -18.9320 hc         1 WHV       0.043367
     24 H7          -8.9200     9.8780   -20.6530 hc         1 WHV       0.043367
     25 H14         -8.1270    11.7770   -18.3200 hn         1 WHV       0.411000
@<TRIPOS>BOND
     1     1     2 2   
     2     1     4 1   
     3     2     3 1   
     4     2    11 1   
     5     3    12 1   
     6     3    13 1   
     7     3    14 1   
     8     4     5 1   
     9     4    10 2   
    10     5    15 1   
    11     5    16 1   
    12     5    17 1   
    13     6     7 1   
    14     6     8 1   
    15     6    25 1   
    16     7    18 1   
    17     7    19 1   
    18     7    20 1   
    19     8     9 1   
    20     8    10 1   
    21     8    21 1   
    22     9    22 1   
    23     9    23 1   
    24     9    24 1   
    25    10    11 1   
@<TRIPOS>SUBSTRUCTURE
     1 WHV         1 TEMP              0 ****  ****    0 ROOT
