@<TRIPOS>MOLECULE
WHV
   25    25     1     0     0
SMALL
bcc


@<TRIPOS>ATOM
      1 N1          -4.1970     9.5380   -17.5060 nc         1 WHV      -0.651000
      2 C4          -5.0180     9.4150   -16.5140 cd         1 WHV       0.447700
      3 C5          -4.6250     9.0060   -15.1350 c3         1 WHV      -0.127400
      4 C6          -4.8340     9.9100   -18.6630 cc         1 WHV       0.369600
      5 C7          -4.0150    10.1290   -19.8950 c3         1 WHV      -0.121400
      6 N           -7.7110    11.8480   -19.3800 n7         1 WHV      -0.805200
      7 C           -6.6980    12.8810   -19.3190 c3         1 WHV       0.148100
      8 C1          -7.1880    10.5070   -19.5920 c3         1 WHV       0.249800
      9 C2          -8.3480     9.5240   -19.7090 c3         1 WHV      -0.087100
     10 C3          -6.1850    10.0660   -18.5590 cd         1 WHV      -0.185700
     11 S           -6.6590     9.7410   -16.9290 ss         1 WHV      -0.211300
     12 H9          -5.4550     9.0830   -14.4360 hc         1 WHV       0.057367
     13 H10         -4.2740     7.9730   -15.1290 hc         1 WHV       0.057367
     14 H8          -3.8130     9.6340   -14.7710 hc         1 WHV       0.057367
     15 H11         -3.1270     9.4980   -19.8750 hc         1 WHV       0.049700
     16 H13         -4.5700     9.9020   -20.8030 hc         1 WHV       0.049700
     17 H12         -3.6780    11.1650   -19.9670 hc         1 WHV       0.049700
     18 H2          -7.1760    13.8480   -19.1690 h1         1 WHV       0.032033
     19 H           -5.9520    12.7460   -18.5260 h1         1 WHV       0.032033
     20 H1          -6.1620    12.9250   -20.2690 h1         1 WHV       0.032033
     21 H4          -6.6600    10.5220   -20.5500 h1         1 WHV       0.069700
     22 H5          -7.9860     8.5120   -19.8870 hc         1 WHV       0.043367
     23 H6          -8.9490     9.5110   -18.7970 hc         1 WHV       0.043367
     24 H7          -9.0010     9.8060   -20.5350 hc         1 WHV       0.043367
     25 H14         -8.2700    11.8650   -18.5350 hn         1 WHV       0.355800
@<TRIPOS>BOND
     1     1     2 2   
     2     1     4 1   
     3     2     3 1   
     4     2    11 1   
     5     3    12 1   
     6     3    13 1   
     7     3    14 1   
     8     4     5 1   
     9     4    10 2   
    10     5    15 1   
    11     5    16 1   
    12     5    17 1   
    13     6     7 1   
    14     6     8 1   
    15     6    25 1   
    16     7    18 1   
    17     7    19 1   
    18     7    20 1   
    19     8     9 1   
    20     8    10 1   
    21     8    21 1   
    22     9    22 1   
    23     9    23 1   
    24     9    24 1   
    25    10    11 1   
@<TRIPOS>SUBSTRUCTURE
     1 WHV         1 TEMP              0 ****  ****    0 ROOT
