@<TRIPOS>MOLECULE
WHW
   48    48     1     0     0
SMALL
abcg2


@<TRIPOS>ATOM
      1 C1          -7.9360     0.5740    -0.0150 c          1 WHW       0.716000
      2 O1          -7.9910     0.2830     1.1970 o          1 WHW      -0.743500
      3 C2          -6.5530     0.5920    -0.6900 c3         1 WHW      -0.204400
      4 O2          -8.9070     0.8550    -0.7500 o          1 WHW      -0.743500
      5 C3          -5.3700     0.2540     0.2010 c3         1 WHW      -0.054400
      6 O3           5.0900    -2.3770    -1.0820 o          1 WHW      -0.525100
      7 C4          -4.0370     0.2940    -0.5380 c3         1 WHW      -0.079400
      8 C5          -2.8530    -0.0890     0.3410 c3         1 WHW      -0.075400
      9 C6          -1.5160    -0.0370    -0.3880 c3         1 WHW      -0.075400
     10 C7          -0.3500    -0.5310     0.4610 c3         1 WHW      -0.076400
     11 C8           0.9870    -0.4130    -0.2590 c3         1 WHW      -0.066400
     12 C9           2.1740    -0.9870     0.5220 c5         1 WHW      -0.048500
     13 C10          2.1090    -2.4790     0.6590 c2         1 WHW      -0.141200
     14 C11          3.1480    -3.1110     0.1090 ce         1 WHW      -0.326200
     15 C12          4.0710    -2.1300    -0.4710 c          1 WHW       0.572300
     16 C13          3.5270    -0.7410    -0.1680 c5         1 WHW      -0.170700
     17 C14          4.4860     0.0840     0.7100 c3         1 WHW      -0.025200
     18 C15          5.7720     0.4620     0.0430 c2         1 WHW      -0.211200
     19 C16          6.0910     1.6650    -0.4320 c2         1 WHW      -0.218200
     20 C17          5.2670     2.9140    -0.4020 c3         1 WHW      -0.046200
     21 C18          5.9130     3.9960     0.4620 c3         1 WHW      -0.085100
     22 H2          -6.5830    -0.1000    -1.5400 hc         1 WHW       0.014700
     23 H2A         -6.4060     1.5820    -1.1390 hc         1 WHW       0.014700
     24 H3          -5.3340     0.9480     1.0460 hc         1 WHW       0.038200
     25 H3A         -5.5080    -0.7400     0.6360 hc         1 WHW       0.038200
     26 H4          -4.0760    -0.3840    -1.3990 hc         1 WHW       0.024700
     27 H4A         -3.8760     1.2960    -0.9520 hc         1 WHW       0.024700
     28 H5          -2.8170     0.5740     1.2120 hc         1 WHW       0.034200
     29 H5A         -3.0120    -1.0990     0.7350 hc         1 WHW       0.034200
     30 H6          -1.5740    -0.6440    -1.2980 hc         1 WHW       0.034200
     31 H6A         -1.3190     0.9890    -0.7190 hc         1 WHW       0.034200
     32 H7          -0.3070     0.0400     1.3950 hc         1 WHW       0.036700
     33 H7A         -0.5400    -1.5700     0.7460 hc         1 WHW       0.036700
     34 H8           0.9320    -0.9070    -1.2350 hc         1 WHW       0.043700
     35 H8A          1.1910     0.6430    -0.4610 hc         1 WHW       0.043700
     36 H9           2.1650    -0.5400     1.5240 hc         1 WHW       0.067700
     37 H10          1.2830    -2.9750     1.1530 ha         1 WHW       0.195000
     38 H11          3.3070    -4.1800     0.0730 ha         1 WHW       0.207000
     39 H13          3.3870    -0.2110    -1.1160 hc         1 WHW       0.084700
     40 H14          3.9460     0.9760     1.0320 hc         1 WHW       0.046200
     41 H14A         4.7010    -0.4830     1.6220 hc         1 WHW       0.046200
     42 H15          6.5100    -0.3260    -0.0560 ha         1 WHW       0.180000
     43 H16          7.0770     1.7810    -0.8780 ha         1 WHW       0.164000
     44 H17          5.1600     3.2930    -1.4230 hc         1 WHW       0.044700
     45 H17A         4.2540     2.7150    -0.0470 hc         1 WHW       0.044700
     46 H18          5.9970     3.6690     1.4990 hc         1 WHW       0.031033
     47 H18A         6.9180     4.2340     0.1080 hc         1 WHW       0.031033
     48 H18B         5.3280     4.9160     0.4460 hc         1 WHW       0.031033
@<TRIPOS>BOND
     1     1     2 1   
     2     1     3 1   
     3     1     4 1   
     4     3     5 1   
     5     3    22 1   
     6     3    23 1   
     7     5     7 1   
     8     5    24 1   
     9     5    25 1   
    10     6    15 2   
    11     7     8 1   
    12     7    26 1   
    13     7    27 1   
    14     8     9 1   
    15     8    28 1   
    16     8    29 1   
    17     9    10 1   
    18     9    30 1   
    19     9    31 1   
    20    10    11 1   
    21    10    32 1   
    22    10    33 1   
    23    11    12 1   
    24    11    34 1   
    25    11    35 1   
    26    12    13 1   
    27    12    16 1   
    28    12    36 1   
    29    13    14 2   
    30    13    37 1   
    31    14    15 1   
    32    14    38 1   
    33    15    16 1   
    34    16    17 1   
    35    16    39 1   
    36    17    18 1   
    37    17    40 1   
    38    17    41 1   
    39    18    19 2   
    40    18    42 1   
    41    19    20 1   
    42    19    43 1   
    43    20    21 1   
    44    20    44 1   
    45    20    45 1   
    46    21    46 1   
    47    21    47 1   
    48    21    48 1   
@<TRIPOS>SUBSTRUCTURE
     1 WHW         1 TEMP              0 ****  ****    0 ROOT
