@<TRIPOS>MOLECULE
WHW
   48    48     1     0     0
SMALL
No Charge or Current Charge


@<TRIPOS>ATOM
      1 C1          -8.0920     0.2510    -0.0140 c          1 WHW       0.716000
      2 O1          -8.6380    -0.8430    -0.0200 o          1 WHW      -0.743500
      3 C2          -6.7760     0.4110    -0.7960 c3         1 WHW      -0.204400
      4 O2          -8.5100     1.2100     0.6160 o          1 WHW      -0.743500
      5 C3          -5.5700     0.0560     0.1080 c3         1 WHW      -0.054400
      6 O3           4.4190    -2.1890    -1.6000 o          1 WHW      -0.525100
      7 C4          -4.2090     0.1940    -0.6110 c3         1 WHW      -0.079400
      8 C5          -3.0080    -0.1610     0.2940 c3         1 WHW      -0.075400
      9 C6          -1.6480    -0.0230    -0.4250 c3         1 WHW      -0.075400
     10 C7          -0.4480    -0.3780     0.4800 c3         1 WHW      -0.076400
     11 C8           0.9130    -0.2410    -0.2400 c3         1 WHW      -0.066400
     12 C9           2.1440    -0.5490     0.6500 c5         1 WHW      -0.048500
     13 C10          2.1780    -2.0090     1.0960 c2         1 WHW      -0.141200
     14 C11          3.1070    -2.6510     0.3640 ce         1 WHW      -0.326200
     15 C12          3.8200    -1.8060    -0.6050 c          1 WHW       0.572300
     16 C13          3.5100    -0.3820    -0.1110 c5         1 WHW      -0.170700
     17 C14          4.6500     0.1270     0.8090 c3         1 WHW      -0.025200
     18 C15          5.9780     0.2890     0.0910 c2         1 WHW      -0.211200
     19 C16          6.4390     1.4020    -0.5070 c2         1 WHW      -0.218200
     20 C17          5.7230     2.7340    -0.6300 c3         1 WHW      -0.046200
     21 C18          6.2220     3.7580     0.4040 c3         1 WHW      -0.085100
     22 H2          -6.7390    -0.2940    -1.6360 hc         1 WHW       0.014700
     23 H2A         -6.6300     1.4580    -1.0920 hc         1 WHW       0.014700
     24 H3          -5.5780     0.7070     0.9920 hc         1 WHW       0.038200
     25 H3A         -5.6820    -0.9740     0.4700 hc         1 WHW       0.038200
     26 H4          -4.2000    -0.4580    -1.4930 hc         1 WHW       0.024700
     27 H4A         -4.0950     1.2240    -0.9710 hc         1 WHW       0.024700
     28 H5          -3.0170     0.4910     1.1760 hc         1 WHW       0.034200
     29 H5A         -3.1220    -1.1910     0.6550 hc         1 WHW       0.034200
     30 H6          -1.6390    -0.6750    -1.3070 hc         1 WHW       0.034200
     31 H6A         -1.5350     1.0070    -0.7860 hc         1 WHW       0.034200
     32 H7          -0.4560     0.2750     1.3620 hc         1 WHW       0.036700
     33 H7A         -0.5670    -1.4070     0.8410 hc         1 WHW       0.036700
     34 H8           0.9180    -0.9000    -1.1180 hc         1 WHW       0.043700
     35 H8A          0.9980     0.7830    -0.6250 hc         1 WHW       0.043700
     36 H9           2.0860     0.1220     1.5160 hc         1 WHW       0.067700
     37 H10          1.5230    -2.4730     1.8380 ha         1 WHW       0.195000
     38 H11          3.2920    -3.7230     0.3910 ha         1 WHW       0.207000
     39 H13          3.4660     0.2990    -0.9680 hc         1 WHW       0.084700
     40 H14          4.3530     1.0860     1.2510 hc         1 WHW       0.046200
     41 H14A         4.7790    -0.5530     1.6610 hc         1 WHW       0.046200
     42 H15          6.5960    -0.6120     0.1010 ha         1 WHW       0.180000
     43 H16          7.4230     1.3880    -0.9810 ha         1 WHW       0.164000
     44 H17          5.8700     3.1420    -1.6380 hc         1 WHW       0.044700
     45 H17A         4.6400     2.6120    -0.5100 hc         1 WHW       0.044700
     46 H18          6.0510     3.3910     1.4240 hc         1 WHW       0.031033
     47 H18A         7.2960     3.9440     0.2780 hc         1 WHW       0.031033
     48 H18B         5.6920     4.7100     0.2880 hc         1 WHW       0.031033
@<TRIPOS>BOND
     1     1     2 1   
     2     1     3 1   
     3     1     4 1   
     4     3     5 1   
     5     3    22 1   
     6     3    23 1   
     7     5     7 1   
     8     5    24 1   
     9     5    25 1   
    10     6    15 2   
    11     7     8 1   
    12     7    26 1   
    13     7    27 1   
    14     8     9 1   
    15     8    28 1   
    16     8    29 1   
    17     9    10 1   
    18     9    30 1   
    19     9    31 1   
    20    10    11 1   
    21    10    32 1   
    22    10    33 1   
    23    11    12 1   
    24    11    34 1   
    25    11    35 1   
    26    12    13 1   
    27    12    16 1   
    28    12    36 1   
    29    13    14 2   
    30    13    37 1   
    31    14    15 1   
    32    14    38 1   
    33    15    16 1   
    34    16    17 1   
    35    16    39 1   
    36    17    18 1   
    37    17    40 1   
    38    17    41 1   
    39    18    19 2   
    40    18    42 1   
    41    19    20 1   
    42    19    43 1   
    43    20    21 1   
    44    20    44 1   
    45    20    45 1   
    46    21    46 1   
    47    21    47 1   
    48    21    48 1   
@<TRIPOS>SUBSTRUCTURE
     1 WHW         1 TEMP              0 ****  ****    0 ROOT
