@<TRIPOS>MOLECULE
WHX
   20    19     1     0     0
SMALL
abcg2


@<TRIPOS>ATOM
      1 C01        -11.4610   -11.0830    47.9670 c3         1 WHX      -0.072400
      2 C02        -11.6070    -9.9930    46.9080 c3         1 WHX      -0.079400
      3 C03        -11.2740    -8.6030    47.4320 c3         1 WHX       0.150800
      4 C05        -11.8010   -12.4730    47.4340 c3         1 WHX      -0.074400
      5 C06        -11.6620   -13.5790    48.4620 c3         1 WHX       0.161600
      6 N04        -11.4260    -7.5910    46.3750 n8         1 WHX      -1.002200
      7 O07        -10.2800   -13.7050    48.8310 oh         1 WHX      -0.671000
      8 H1         -10.4390   -11.0800    48.3550 hc         1 WHX       0.043700
      9 H2         -12.1170   -10.8560    48.8150 hc         1 WHX       0.043700
     10 H3         -12.6300    -9.9910    46.5170 hc         1 WHX       0.044700
     11 H4         -10.9490   -10.2200    46.0610 hc         1 WHX       0.044700
     12 H5         -10.2630    -8.6170    47.8630 h1         1 WHX       0.027700
     13 H6         -11.9600    -8.3460    48.2440 h1         1 WHX       0.027700
     14 H7         -12.8330   -12.4820    47.0700 hc         1 WHX       0.046700
     15 H8         -11.1640   -12.7090    46.5750 hc         1 WHX       0.046700
     16 H9         -12.2670   -13.3480    49.3470 h1         1 WHX       0.020200
     17 H10        -12.0240   -14.5250    48.0440 h1         1 WHX       0.020200
     18 H11        -11.2040    -6.6720    46.7450 hn         1 WHX       0.391500
     19 H12        -10.7450    -7.7670    45.6420 hn         1 WHX       0.391500
     20 H14        -10.2100   -14.3830    49.5130 ho         1 WHX       0.438000
@<TRIPOS>BOND
     1     1     2 1   
     2     1     4 1   
     3     1     8 1   
     4     1     9 1   
     5     2     3 1   
     6     2    10 1   
     7     2    11 1   
     8     3     6 1   
     9     3    12 1   
    10     3    13 1   
    11     4     5 1   
    12     4    14 1   
    13     4    15 1   
    14     5     7 1   
    15     5    16 1   
    16     5    17 1   
    17     6    18 1   
    18     6    19 1   
    19     7    20 1   
@<TRIPOS>SUBSTRUCTURE
     1 WHX         1 TEMP              0 ****  ****    0 ROOT
