@<TRIPOS>MOLECULE
WHX
   20    19     1     0     0
SMALL
No Charge or Current Charge


@<TRIPOS>ATOM
      1 C01        -11.4460   -11.0810    47.9580 c3         1 WHX      -0.072400
      2 C02        -11.6170    -9.9780    46.8900 c3         1 WHX      -0.079400
      3 C03        -11.2850    -8.5700    47.4250 c3         1 WHX       0.150800
      4 C05        -11.7770   -12.4970    47.4270 c3         1 WHX      -0.074400
      5 C06        -11.6540   -13.6140    48.4870 c3         1 WHX       0.161600
      6 N04        -11.4610    -7.5400    46.3850 n8         1 WHX      -1.002200
      7 O07        -10.2900   -13.7670    48.8980 oh         1 WHX      -0.671000
      8 H1         -10.4120   -11.0630    48.3280 hc         1 WHX       0.043700
      9 H2         -12.0950   -10.8570    48.8140 hc         1 WHX       0.043700
     10 H3         -12.6510    -9.9900    46.5230 hc         1 WHX       0.044700
     11 H4         -10.9680   -10.2030    46.0350 hc         1 WHX       0.044700
     12 H5         -10.2440    -8.5420    47.7760 h1         1 WHX       0.027700
     13 H6         -11.9440    -8.3310    48.2720 h1         1 WHX       0.027700
     14 H7         -12.8050   -12.5000    47.0440 hc         1 WHX       0.046700
     15 H8         -11.1250   -12.7330    46.5770 hc         1 WHX       0.046700
     16 H9         -12.2900   -13.3700    49.3480 h1         1 WHX       0.020200
     17 H10        -12.0220   -14.5540    48.0550 h1         1 WHX       0.020200
     18 H11        -11.1690    -6.6300    46.7630 hn         1 WHX       0.391500
     19 H12        -10.7880    -7.7120    45.6280 hn         1 WHX       0.391500
     20 H14        -10.2730   -14.4900    49.5650 ho         1 WHX       0.438000
@<TRIPOS>BOND
     1     1     2 1   
     2     1     4 1   
     3     1     8 1   
     4     1     9 1   
     5     2     3 1   
     6     2    10 1   
     7     2    11 1   
     8     3     6 1   
     9     3    12 1   
    10     3    13 1   
    11     4     5 1   
    12     4    14 1   
    13     4    15 1   
    14     5     7 1   
    15     5    16 1   
    16     5    17 1   
    17     6    18 1   
    18     6    19 1   
    19     7    20 1   
@<TRIPOS>SUBSTRUCTURE
     1 WHX         1 TEMP              0 ****  ****    0 ROOT
