@<TRIPOS>MOLECULE
WHY
   24    24     1     0     0
SMALL
No Charge or Current Charge


@<TRIPOS>ATOM
      1 N1          15.5880     4.8390   -18.9840 n1         1 WHY      -0.456000
      2 C4          18.5290     7.2450   -22.0360 ca         1 WHY      -0.105000
      3 C5          17.4280     6.6870   -21.3620 ca         1 WHY      -0.074500
      4 C6          17.6300     5.8670   -20.2350 ca         1 WHY      -0.022000
      5 C7          16.5060     5.2950   -19.5460 cg         1 WHY       0.325000
      6 C8          18.9410     5.6110   -19.7880 ca         1 WHY      -0.074500
      7 N           21.8650     6.5910   -23.0400 n3         1 WHY      -0.716600
      8 C           23.1250     7.1680   -23.5580 c3         1 WHY       0.149100
      9 C1          21.1130     5.8570   -24.0850 c3         1 WHY       0.149100
     10 C3          19.8410     6.9900   -21.5910 ca         1 WHY      -0.061300
     11 C9          20.0390     6.1700   -20.4630 ca         1 WHY      -0.105000
     12 H8          18.3600     7.8750   -22.9070 ha         1 WHY       0.126000
     13 H9          16.4200     6.8910   -21.7180 ha         1 WHY       0.125000
     14 H10         19.1100     4.9780   -18.9180 ha         1 WHY       0.125000
     15 H1          23.7020     7.6320   -22.7470 h1         1 WHY       0.033200
     16 H2          23.7510     6.3890   -24.0130 h1         1 WHY       0.033200
     17 H           22.9230     7.9340   -24.3180 h1         1 WHY       0.033200
     18 H4          20.2460     5.3360   -23.6560 h1         1 WHY       0.033200
     19 H3          20.7520     6.5430   -24.8630 h1         1 WHY       0.033200
     20 H5          21.7510     5.1010   -24.5620 h1         1 WHY       0.033200
     21 H7          21.6560     8.1130   -21.5740 h1         1 WHY       0.042200
     22 H6          20.6850     8.3610   -23.0230 h1         1 WHY       0.042200
     23 H11         21.0490     5.9640   -20.1150 ha         1 WHY       0.126000
     24 C2          21.0390     7.5940   -22.3200 c3         1 WHY       0.206100
@<TRIPOS>BOND
     1     1     5 3   
     2     2     3 ar  
     3     2    10 ar  
     4     2    12 1   
     5     3     4 ar  
     6     3    13 1   
     7     4     5 1   
     8     4     6 ar  
     9     6    11 ar  
    10     6    14 1   
    11     7     8 1   
    12     7     9 1   
    13     7    24 1   
    14     8    15 1   
    15     8    16 1   
    16     8    17 1   
    17     9    18 1   
    18     9    19 1   
    19     9    20 1   
    20    10    11 ar  
    21    10    24 1   
    22    11    23 1   
    23    21    24 1   
    24    22    24 1   
@<TRIPOS>SUBSTRUCTURE
     1 WHY         1 TEMP              0 ****  ****    0 ROOT
