@<TRIPOS>MOLECULE
WHY
   24    24     1     0     0
SMALL
abcg2


@<TRIPOS>ATOM
      1 N1          15.7320     4.9340   -18.8270 n1         1 WHY      -0.456000
      2 C4          18.4440     7.4240   -21.9210 ca         1 WHY      -0.105000
      3 C5          17.4000     6.9040   -21.1750 ca         1 WHY      -0.074500
      4 C6          17.6630     5.9180   -20.2260 ca         1 WHY      -0.022000
      5 C7          16.5950     5.3730   -19.4530 cg         1 WHY       0.325000
      6 C8          18.9670     5.4600   -20.0300 ca         1 WHY      -0.074500
      7 N           21.8480     6.6030   -22.9560 n3         1 WHY      -0.716600
      8 C           23.0770     7.2260   -23.3980 c3         1 WHY       0.149100
      9 C1          21.3000     5.7380   -23.9800 c3         1 WHY       0.149100
     10 C3          19.7500     6.9810   -21.7330 ca         1 WHY      -0.061300
     11 C9          19.9970     5.9920   -20.7810 ca         1 WHY      -0.105000
     12 H8          18.2390     8.1840   -22.6650 ha         1 WHY       0.126000
     13 H9          16.3890     7.2560   -21.3290 ha         1 WHY       0.125000
     14 H10         19.1660     4.6930   -19.2930 ha         1 WHY       0.125000
     15 H1          23.5170     7.8070   -22.5860 h1         1 WHY       0.033200
     16 H2          23.7960     6.4590   -23.6870 h1         1 WHY       0.033200
     17 H           22.9410     7.8990   -24.2580 h1         1 WHY       0.033200
     18 H4          20.3980     5.2420   -23.6220 h1         1 WHY       0.033200
     19 H3          21.0430     6.2770   -24.9050 h1         1 WHY       0.033200
     20 H5          22.0220     4.9610   -24.2350 h1         1 WHY       0.033200
     21 H7          21.3990     8.3000   -21.8610 h1         1 WHY       0.042200
     22 H6          20.4760     8.1800   -23.3510 h1         1 WHY       0.042200
     23 H11         21.0080     5.6340   -20.6350 ha         1 WHY       0.126000
     24 C2          20.8840     7.5880   -22.5150 c3         1 WHY       0.206100
@<TRIPOS>BOND
     1     1     5 3   
     2     2     3 ar  
     3     2    10 ar  
     4     2    12 1   
     5     3     4 ar  
     6     3    13 1   
     7     4     5 1   
     8     4     6 ar  
     9     6    11 ar  
    10     6    14 1   
    11     7     8 1   
    12     7     9 1   
    13     7    24 1   
    14     8    15 1   
    15     8    16 1   
    16     8    17 1   
    17     9    18 1   
    18     9    19 1   
    19     9    20 1   
    20    10    11 ar  
    21    10    24 1   
    22    11    23 1   
    23    21    24 1   
    24    22    24 1   
@<TRIPOS>SUBSTRUCTURE
     1 WHY         1 TEMP              0 ****  ****    0 ROOT
