@<TRIPOS>MOLECULE
WHZ
   34    35     1     0     0
SMALL
abcg2


@<TRIPOS>ATOM
      1 C11          1.5380     2.5000    16.3750 c          1 WHZ       0.596700
      2 C15         -1.5840     4.1500    14.9540 ca         1 WHZ       0.113000
      3 C16         -2.4960     3.0980    15.0310 ca         1 WHZ       0.126000
      4 C17         -2.0900     1.8690    15.5400 ca         1 WHZ      -0.120000
      5 C18         -0.7840     1.6920    15.9650 ca         1 WHZ      -0.061000
      6 C1           4.1410     5.6480    15.5030 c6         1 WHZ      -0.070400
      7 C2           4.5390     4.2380    15.0260 c6         1 WHZ      -0.063400
      8 C3           4.6010     3.2250    16.1840 c6         1 WHZ      -0.085400
      9 C4           3.5800     3.5440    17.2800 c6         1 WHZ       0.129700
     10 C5           3.9510     4.8940    17.9540 c6         1 WHZ      -0.200700
     11 C6           4.5850     5.8910    16.9440 c6         1 WHZ      -0.046400
     12 C7           2.7760     5.5440    18.7140 c          1 WHZ       0.712000
     13 N8           2.2210     3.5880    16.7460 ns         1 WHZ      -0.479900
     14 O9           1.7840     5.9260    18.0220 o          1 WHZ      -0.727000
     15 O10          2.8830     5.6700    19.9560 o          1 WHZ      -0.727000
     16 C12          0.1310     2.7420    15.9020 ca         1 WHZ      -0.112600
     17 O13          1.9990     1.3520    16.4060 o          1 WHZ      -0.663100
     18 C14         -0.2780     3.9710    15.3900 ca         1 WHZ      -0.055000
     19 H34         -2.8040     1.0590    15.5980 ha         1 WHZ       0.122000
     20 H35         -0.4660     0.7360    16.3550 ha         1 WHZ       0.139000
     21 H22          3.0590     5.7720    15.4380 hc         1 WHZ       0.034700
     22 H23          3.8260     3.8940    14.2740 hc         1 WHZ       0.020700
     23 H24          5.5150     4.2710    14.5370 hc         1 WHZ       0.020700
     24 H26          4.4450     2.2120    15.8130 hc         1 WHZ       0.038200
     25 H25          5.5900     3.2440    16.6510 hc         1 WHZ       0.038200
     26 H27          3.6130     2.7580    18.0380 h1         1 WHZ       0.049700
     27 H28          4.7060     4.6470    18.7000 hc         1 WHZ       0.047700
     28 H29          5.6740     5.7950    16.9970 hc         1 WHZ       0.026700
     29 H30          4.3510     6.9130    17.2450 hc         1 WHZ       0.026700
     30 H31          1.7390     4.4740    16.9120 hn         1 WHZ       0.382500
     31 H33          0.4130     4.7980    15.3030 ha         1 WHZ       0.156000
     32 CL19        -4.1370     3.2870    14.4950 cl         1 WHZ      -0.208000
     33 CL20        -2.0480     5.6970    14.3110 cl         1 WHZ      -0.193000
     34 H21          4.5800     6.4020    14.8460 hc         1 WHZ       0.034700
@<TRIPOS>BOND
     1     1    13 1   
     2     1    16 1   
     3     1    17 2   
     4     2     3 ar  
     5     2    18 ar  
     6     2    33 1   
     7     3     4 ar  
     8     3    32 1   
     9     4     5 ar  
    10     4    19 1   
    11     5    16 ar  
    12     5    20 1   
    13     6     7 1   
    14     6    11 1   
    15     6    21 1   
    16     6    34 1   
    17     7     8 1   
    18     7    22 1   
    19     7    23 1   
    20     8     9 1   
    21     8    24 1   
    22     8    25 1   
    23     9    10 1   
    24     9    13 1   
    25     9    26 1   
    26    10    11 1   
    27    10    12 1   
    28    10    27 1   
    29    11    28 1   
    30    11    29 1   
    31    12    14 1   
    32    12    15 1   
    33    13    30 1   
    34    16    18 ar  
    35    18    31 1   
@<TRIPOS>SUBSTRUCTURE
     1 WHZ         1 TEMP              0 ****  ****    0 ROOT
