@<TRIPOS>MOLECULE
WHZ
   34    35     1     0     0
SMALL
No Charge or Current Charge


@<TRIPOS>ATOM
      1 C11          1.4650     2.4400    16.5030 c          1 WHZ       0.596700
      2 C15         -1.7520     4.1650    15.2480 ca         1 WHZ       0.113000
      3 C16         -2.5840     3.0500    15.0220 ca         1 WHZ       0.126000
      4 C17         -2.0990     1.7580    15.2750 ca         1 WHZ      -0.120000
      5 C18         -0.7900     1.5740    15.7530 ca         1 WHZ      -0.061000
      6 C1           4.3280     5.6600    15.4520 c6         1 WHZ      -0.070400
      7 C2           4.6110     4.1950    15.0180 c6         1 WHZ      -0.063400
      8 C3           4.6140     3.1970    16.2120 c6         1 WHZ      -0.085400
      9 C4           3.5870     3.5780    17.3140 c6         1 WHZ       0.129700
     10 C5           3.9430     4.9850    17.9170 c6         1 WHZ      -0.200700
     11 C6           4.7290     5.9070    16.9250 c6         1 WHZ      -0.046400
     12 C7           2.7310     5.7160    18.5460 c          1 WHZ       0.712000
     13 N8           2.2210     3.5540    16.7810 ns         1 WHZ      -0.479900
     14 O9           1.8250     6.0840    17.8100 o          1 WHZ      -0.727000
     15 O10          2.7410     5.9060    19.7530 o          1 WHZ      -0.727000
     16 C12          0.0580     2.6810    15.9890 ca         1 WHZ      -0.112600
     17 O13          1.9140     1.3130    16.6650 o          1 WHZ      -0.663100
     18 C14         -0.4430     3.9820    15.7270 ca         1 WHZ      -0.055000
     19 H34         -2.7380     0.8970    15.1000 ha         1 WHZ       0.122000
     20 H35         -0.4360     0.5620    15.9420 ha         1 WHZ       0.139000
     21 H22          3.2600     5.8850    15.3230 hc         1 WHZ       0.034700
     22 H23          3.8600     3.8890    14.2770 hc         1 WHZ       0.020700
     23 H24          5.5820     4.1410    14.5070 hc         1 WHZ       0.020700
     24 H26          4.4250     2.1800    15.8430 hc         1 WHZ       0.038200
     25 H25          5.6180     3.1670    16.6580 hc         1 WHZ       0.038200
     26 H27          3.6350     2.8340    18.1220 h1         1 WHZ       0.049700
     27 H28          4.6320     4.7870    18.7500 hc         1 WHZ       0.047700
     28 H29          5.8080     5.7250    17.0330 hc         1 WHZ       0.026700
     29 H30          4.5780     6.9640    17.1870 hc         1 WHZ       0.026700
     30 H31          1.7550     4.4540    16.7190 hn         1 WHZ       0.382500
     31 H33          0.1660     4.8680    15.8820 ha         1 WHZ       0.156000
     32 Cl19        -4.2320     3.2440    14.4220 cl         1 WHZ      -0.208000
     33 Cl20        -2.3260     5.8050    14.9370 cl         1 WHZ      -0.193000
     34 H21          4.8660     6.3540    14.7920 hc         1 WHZ       0.034700
@<TRIPOS>BOND
     1     1    13 1   
     2     1    16 1   
     3     1    17 2   
     4     2     3 ar  
     5     2    18 ar  
     6     2    33 1   
     7     3     4 ar  
     8     3    32 1   
     9     4     5 ar  
    10     4    19 1   
    11     5    16 ar  
    12     5    20 1   
    13     6     7 1   
    14     6    11 1   
    15     6    21 1   
    16     6    34 1   
    17     7     8 1   
    18     7    22 1   
    19     7    23 1   
    20     8     9 1   
    21     8    24 1   
    22     8    25 1   
    23     9    10 1   
    24     9    13 1   
    25     9    26 1   
    26    10    11 1   
    27    10    12 1   
    28    10    27 1   
    29    11    28 1   
    30    11    29 1   
    31    12    14 1   
    32    12    15 1   
    33    13    30 1   
    34    16    18 ar  
    35    18    31 1   
@<TRIPOS>SUBSTRUCTURE
     1 WHZ         1 TEMP              0 ****  ****    0 ROOT
