@<TRIPOS>MOLECULE
WI2
   43    45     1     0     0
SMALL
No Charge or Current Charge


@<TRIPOS>ATOM
      1 CAL         -2.7560     0.4880     1.3650 c6         1 WI2       0.186800
      2 CAJ         -4.2600     0.3850     1.0040 c6         1 WI2      -0.056400
      3 CAW         -4.5620    -0.9110     0.2000 c6         1 WI2      -0.192700
      4 CAQ         -6.0580    -1.0390    -0.1750 c          1 WI2       0.722000
      5 OAD         -6.5550    -0.1850    -0.8950 o          1 WI2      -0.734500
      6 OAC         -6.6790    -1.9930     0.2690 o          1 WI2      -0.734500
      7 CAK         -3.6300    -0.9780    -1.0420 c6         1 WI2      -0.056400
      8 CAM         -2.1380    -0.8420    -0.6450 c6         1 WI2       0.186800
      9 NAX         -1.8980     0.3960     0.1530 nh         1 WI2      -0.746300
     10 CAV         -0.6140     1.0130     0.1670 ca         1 WI2       0.506900
     11 NAO          0.4300     0.1680    -0.0270 nb         1 WI2      -0.688000
     12 CAR         -0.3940     2.4470     0.3590 ca         1 WI2       0.538900
     13 NAB         -1.3370     3.4160     0.5130 nv         1 WI2      -1.034900
     14 NAN          0.8190     3.0170     0.3550 nb         1 WI2      -0.732000
     15 CAH          1.8490     2.1420     0.1680 ca         1 WI2       0.309900
     16 CAU          1.6760     0.7220    -0.0190 cp         1 WI2       0.315500
     17 CAT          2.8400    -0.2170    -0.2310 cp         1 WI2      -0.077500
     18 CAI          4.1690     0.1510     0.1190 ca         1 WI2      -0.144000
     19 CAG          2.6540    -1.5140    -0.7850 ca         1 WI2      -0.110000
     20 CAE          3.7350    -2.3880    -0.9850 ca         1 WI2      -0.084000
     21 CAF          5.0350    -1.9950    -0.6340 ca         1 WI2      -0.201000
     22 CAS          5.2550    -0.7190    -0.0770 ca         1 WI2       0.126100
     23 OAP          6.5080    -0.2780     0.2940 os         1 WI2      -0.348100
     24 CAA          7.6860    -1.0900     0.1370 c3         1 WI2       0.152900
     25 HAL1        -2.5850     1.4350     1.8960 h1         1 WI2       0.029200
     26 HAL2        -2.4970    -0.3230     2.0620 h1         1 WI2       0.029200
     27 HAJ1        -4.8600     0.4050     1.9230 hc         1 WI2       0.049700
     28 HAJ2        -4.5530     1.2680     0.4200 hc         1 WI2       0.049700
     29 HAW         -4.3180    -1.7670     0.8450 hc         1 WI2       0.025700
     30 HAK1        -3.7830    -1.9250    -1.5760 hc         1 WI2       0.049700
     31 HAK2        -3.8890    -0.1770    -1.7480 hc         1 WI2       0.049700
     32 HAM1        -1.8340    -1.7260    -0.0660 h1         1 WI2       0.029200
     33 HAM2        -1.5380    -0.8260    -1.5670 h1         1 WI2       0.029200
     34 HAB1        -2.2790     3.1870     0.2100 hn         1 WI2       0.475500
     35 HAB2        -1.0240     4.3670     0.3570 hn         1 WI2       0.475500
     36 HAH          2.8400     2.5910     0.1510 h4         1 WI2       0.018100
     37 HAI          4.3740     1.1200     0.5640 ha         1 WI2       0.122000
     38 HAG          1.6590    -1.8480    -1.0720 ha         1 WI2       0.142000
     39 HAE          3.5620    -3.3730    -1.4140 ha         1 WI2       0.108000
     40 HAF          5.8530    -2.6910    -0.7990 ha         1 WI2       0.109000
     41 HAA1         7.8450    -1.3450    -0.9190 h1         1 WI2       0.035033
     42 HAA2         8.5710    -0.5480     0.4930 h1         1 WI2       0.035033
     43 HAA3         7.5990    -2.0180     0.7150 h1         1 WI2       0.035033
@<TRIPOS>BOND
     1     1     2 1   
     2     1     9 1   
     3     1    25 1   
     4     1    26 1   
     5     2     3 1   
     6     2    27 1   
     7     2    28 1   
     8     3     4 1   
     9     3     7 1   
    10     3    29 1   
    11     4     5 1   
    12     4     6 1   
    13     7     8 1   
    14     7    30 1   
    15     7    31 1   
    16     8     9 1   
    17     8    32 1   
    18     8    33 1   
    19     9    10 1   
    20    10    11 ar  
    21    10    12 ar  
    22    11    16 ar  
    23    12    13 1   
    24    12    14 ar  
    25    13    34 1   
    26    13    35 1   
    27    14    15 ar  
    28    15    16 ar  
    29    15    36 1   
    30    16    17 1   
    31    17    18 ar  
    32    17    19 ar  
    33    18    22 ar  
    34    18    37 1   
    35    19    20 ar  
    36    19    38 1   
    37    20    21 ar  
    38    20    39 1   
    39    21    22 ar  
    40    21    40 1   
    41    22    23 1   
    42    23    24 1   
    43    24    41 1   
    44    24    42 1   
    45    24    43 1   
@<TRIPOS>SUBSTRUCTURE
     1 WI2         1 TEMP              0 ****  ****    0 ROOT
