@<TRIPOS>MOLECULE
WI2
   43    45     1     0     0
SMALL
abcg2


@<TRIPOS>ATOM
      1 CAL         -2.6950     0.6350     1.2670 c6         1 WI2       0.186800
      2 CAJ         -4.1680     0.4530     0.9420 c6         1 WI2      -0.056400
      3 CAW         -4.4180    -0.8750     0.2400 c6         1 WI2      -0.192700
      4 CAQ         -5.8950    -1.1170    -0.1350 c          1 WI2       0.722000
      5 OAD         -6.7550    -0.4060     0.4220 o          1 WI2      -0.734500
      6 OAC         -6.1180    -2.0330    -0.9530 o          1 WI2      -0.734500
      7 CAK         -3.4850    -1.0060    -0.9610 c6         1 WI2      -0.056400
      8 CAM         -2.0310    -0.7780    -0.5810 c6         1 WI2       0.186800
      9 NAX         -1.8800     0.5210     0.0550 nh         1 WI2      -0.746300
     10 CAV         -0.5910     1.0270     0.1310 ca         1 WI2       0.506900
     11 NAO          0.4410     0.2370     0.0010 nb         1 WI2      -0.688000
     12 CAR         -0.3940     2.4400     0.2710 ca         1 WI2       0.538900
     13 NAB         -1.4540     3.2910     0.3310 nv         1 WI2      -1.034900
     14 NAN          0.8240     2.9330     0.3430 nb         1 WI2      -0.732000
     15 CAH          1.8580     2.0950     0.2410 ca         1 WI2       0.309900
     16 CAU          1.6860     0.7400     0.0410 cp         1 WI2       0.315500
     17 CAT          2.8030    -0.2020    -0.1650 cp         1 WI2      -0.077500
     18 CAI          4.1070     0.1310     0.1850 ca         1 WI2      -0.144000
     19 CAG          2.5570    -1.4570    -0.7320 ca         1 WI2      -0.110000
     20 CAE          3.6040    -2.3330    -0.9490 ca         1 WI2      -0.084000
     21 CAF          4.9110    -2.0000    -0.6120 ca         1 WI2      -0.201000
     22 CAS          5.1610    -0.7550    -0.0390 ca         1 WI2       0.126100
     23 OAP          6.3810    -0.3220     0.3340 os         1 WI2      -0.348100
     24 CAA          7.4940    -1.1630     0.1070 c3         1 WI2       0.152900
     25 HAL1        -2.5280     1.6070     1.7320 h1         1 WI2       0.029200
     26 HAL2        -2.3800    -0.1240     1.9990 h1         1 WI2       0.029200
     27 HAJ1        -4.7430     0.5120     1.8670 hc         1 WI2       0.049700
     28 HAJ2        -4.5020     1.2820     0.3100 hc         1 WI2       0.049700
     29 HAW         -4.1490    -1.6750     0.9490 hc         1 WI2       0.025700
     30 HAK1        -3.5830    -1.9950    -1.4080 hc         1 WI2       0.049700
     31 HAK2        -3.7670    -0.2780    -1.7290 hc         1 WI2       0.049700
     32 HAM1        -1.6850    -1.5880     0.0790 h1         1 WI2       0.029200
     33 HAM2        -1.3990    -0.8080    -1.4690 h1         1 WI2       0.029200
     34 HAB1        -2.2990     2.9800    -0.1250 hn         1 WI2       0.475500
     35 HAB2        -1.2380     4.2620     0.1730 hn         1 WI2       0.475500
     36 HAH          2.8410     2.5480     0.2810 h4         1 WI2       0.018100
     37 HAI          4.3350     1.0830     0.6500 ha         1 WI2       0.122000
     38 HAG          1.5480    -1.7370    -1.0030 ha         1 WI2       0.142000
     39 HAE          3.4080    -3.3000    -1.3950 ha         1 WI2       0.108000
     40 HAF          5.7050    -2.7110    -0.7960 ha         1 WI2       0.109000
     41 HAA1         7.6220    -1.3970    -0.9530 h1         1 WI2       0.035033
     42 HAA2         8.3690    -0.6170     0.4520 h1         1 WI2       0.035033
     43 HAA3         7.4210    -2.0990     0.6670 h1         1 WI2       0.035033
@<TRIPOS>BOND
     1     1     2 1   
     2     1     9 1   
     3     1    25 1   
     4     1    26 1   
     5     2     3 1   
     6     2    27 1   
     7     2    28 1   
     8     3     4 1   
     9     3     7 1   
    10     3    29 1   
    11     4     5 1   
    12     4     6 1   
    13     7     8 1   
    14     7    30 1   
    15     7    31 1   
    16     8     9 1   
    17     8    32 1   
    18     8    33 1   
    19     9    10 1   
    20    10    11 ar  
    21    10    12 ar  
    22    11    16 ar  
    23    12    13 1   
    24    12    14 ar  
    25    13    34 1   
    26    13    35 1   
    27    14    15 ar  
    28    15    16 ar  
    29    15    36 1   
    30    16    17 1   
    31    17    18 ar  
    32    17    19 ar  
    33    18    22 ar  
    34    18    37 1   
    35    19    20 ar  
    36    19    38 1   
    37    20    21 ar  
    38    20    39 1   
    39    21    22 ar  
    40    21    40 1   
    41    22    23 1   
    42    23    24 1   
    43    24    41 1   
    44    24    42 1   
    45    24    43 1   
@<TRIPOS>SUBSTRUCTURE
     1 WI2         1 TEMP              0 ****  ****    0 ROOT
