@<TRIPOS>MOLECULE
WI3
   18    18     1     0     0
SMALL
No Charge or Current Charge


@<TRIPOS>ATOM
      1 N5           1.4010     2.6100     0.1470 nv         1 WI3      -1.064900
      2 C2           1.0680     1.3030     0.0900 ca         1 WI3       0.419900
      3 N1           2.0770     0.4250     0.0790 nb         1 WI3      -0.300000
      4 C3           1.6890    -0.8660     0.0170 ca         1 WI3       0.208300
      5 C8           2.7740    -1.9260     0.0110 c3         1 WI3      -0.140400
      6 N4          -0.2380     1.0160     0.0440 nb         1 WI3      -0.307000
      7 C4          -0.5230    -0.3030    -0.0130 ca         1 WI3       0.287300
      8 N3           0.4060    -1.2840    -0.0280 nb         1 WI3      -0.247000
      9 S1          -2.2380    -0.8130    -0.0760 ss         1 WI3      -0.291300
     10 C6          -3.1910     0.7720    -0.0140 c3         1 WI3       0.017900
     11 H51N         2.3630     2.8670    -0.0580 hn         1 WI3       0.508500
     12 H52N         0.6890     3.3000    -0.0830 hn         1 WI3       0.508500
     13 H81C         3.0490    -2.2060     1.0340 hc         1 WI3       0.063033
     14 H82C         2.4440    -2.8340    -0.5080 hc         1 WI3       0.063033
     15 H83C         3.6790    -1.5680    -0.4940 hc         1 WI3       0.063033
     16 H61C        -2.9600     1.3110     0.9140 h1         1 WI3       0.070367
     17 H62C        -2.9260     1.4010    -0.8730 h1         1 WI3       0.070367
     18 H63C        -4.2660     0.5570    -0.0450 h1         1 WI3       0.070367
@<TRIPOS>BOND
     1     1     2 1   
     2     1    11 1   
     3     1    12 1   
     4     2     3 ar  
     5     2     6 ar  
     6     3     4 ar  
     7     4     5 1   
     8     4     8 ar  
     9     5    13 1   
    10     5    14 1   
    11     5    15 1   
    12     6     7 ar  
    13     7     8 ar  
    14     7     9 1   
    15     9    10 1   
    16    10    16 1   
    17    10    17 1   
    18    10    18 1   
@<TRIPOS>SUBSTRUCTURE
     1 WI3         1 TEMP              0 ****  ****    0 ROOT
