@<TRIPOS>MOLECULE
WI3
   18    18     1     0     0
SMALL
abcg2


@<TRIPOS>ATOM
      1 N5           1.4050     2.6040     0.0580 nv         1 WI3      -1.064900
      2 C2           1.0630     1.3200     0.0260 ca         1 WI3       0.419900
      3 N1           2.0440     0.4080     0.0130 nb         1 WI3      -0.300000
      4 C3           1.6470    -0.8530    -0.0130 ca         1 WI3       0.208300
      5 C8           2.7020    -1.9090     0.0050 c3         1 WI3      -0.140400
      6 N4          -0.2470     1.0250     0.0110 nb         1 WI3      -0.307000
      7 C4          -0.5100    -0.2610    -0.0160 ca         1 WI3       0.287300
      8 N3           0.3780    -1.2520    -0.0300 nb         1 WI3      -0.247000
      9 S1          -2.1670    -0.8100    -0.0380 ss         1 WI3      -0.291300
     10 C6          -3.0960     0.7340    -0.0160 c3         1 WI3       0.017900
     11 H51N         2.3730     2.8740     0.0480 hn         1 WI3       0.508500
     12 H52N         0.7020     3.3220     0.0440 hn         1 WI3       0.508500
     13 H81C         2.9820    -2.1250     1.0390 hc         1 WI3       0.063033
     14 H82C         2.3410    -2.8320    -0.4410 hc         1 WI3       0.063033
     15 H83C         3.5980    -1.5750    -0.5130 hc         1 WI3       0.063033
     16 H61C        -2.8890     1.3060     0.8850 h1         1 WI3       0.070367
     17 H62C        -2.8830     1.3370    -0.8950 h1         1 WI3       0.070367
     18 H63C        -4.1460     0.4490    -0.0240 h1         1 WI3       0.070367
@<TRIPOS>BOND
     1     1     2 1   
     2     1    11 1   
     3     1    12 1   
     4     2     3 ar  
     5     2     6 ar  
     6     3     4 ar  
     7     4     5 1   
     8     4     8 ar  
     9     5    13 1   
    10     5    14 1   
    11     5    15 1   
    12     6     7 ar  
    13     7     8 ar  
    14     7     9 1   
    15     9    10 1   
    16    10    16 1   
    17    10    17 1   
    18    10    18 1   
@<TRIPOS>SUBSTRUCTURE
     1 WI3         1 TEMP              0 ****  ****    0 ROOT
