@<TRIPOS>MOLECULE
WI4
   29    31     1     0     0
SMALL
No Charge or Current Charge


@<TRIPOS>ATOM
      1 Cl           2.7700    -2.3000     0.7050 cl         1 WI4      -0.198000
      2 CAJ          3.2580    -0.6810     0.1850 ca         1 WI4       0.084000
      3 CAI          4.6300    -0.3740     0.1440 ca         1 WI4      -0.085000
      4 CAA          5.0550     0.8990    -0.2700 ca         1 WI4      -0.112000
      5 CAB          4.1080     1.8630    -0.6490 ca         1 WI4      -0.091000
      6 CAC          2.7350     1.5580    -0.6070 ca         1 WI4      -0.097000
      7 CAK          2.2890     0.2900    -0.1770 ca         1 WI4       0.304000
      8 NAL          0.9210    -0.0460    -0.1370 nu         1 WI4      -0.921900
      9 CAM         -0.2620     0.6630    -0.0120 ca         1 WI4       0.428900
     10 NAN         -1.3740    -0.0740    -0.1230 nb         1 WI4      -0.309000
     11 NAD         -0.2210     1.9800     0.2250 nb         1 WI4      -0.278000
     12 CAE         -1.4290     2.5540     0.3410 ca         1 WI4       0.202900
     13 NAF         -2.6070     1.9070     0.2410 nb         1 WI4      -0.272000
     14 CAO         -2.5630     0.5700     0.0050 ca         1 WI4       0.298500
     15 NAP         -3.7580    -0.1540    -0.1060 na         1 WI4      -0.005500
     16 CAQ         -4.9040     0.1310     0.6370 cc         1 WI4      -0.153500
     17 CAR         -5.8160    -0.8030     0.2190 cd         1 WI4      -0.172000
     18 CAH         -5.2210    -1.6340    -0.7610 cd         1 WI4      -0.172000
     19 CAG         -3.9280    -1.2330    -0.9730 cc         1 WI4      -0.153500
     20 HAI          5.3620    -1.1250     0.4300 ha         1 WI4       0.132000
     21 HAA          6.1170     1.1350    -0.3030 ha         1 WI4       0.122000
     22 HAB          4.4360     2.8450    -0.9820 ha         1 WI4       0.122000
     23 HAC          2.0250     2.3120    -0.9310 ha         1 WI4       0.138000
     24 HAE         -1.4600     3.6260     0.5310 h5         1 WI4       0.057100
     25 HAQ         -4.9690     0.9320     1.3650 h4         1 WI4       0.166500
     26 HAG         -3.1530    -1.6050    -1.6340 h4         1 WI4       0.166500
     27 HAR         -6.8350    -0.8900     0.5850 ha         1 WI4       0.136500
     28 HAH         -5.7110    -2.4600    -1.2690 ha         1 WI4       0.136500
     29 H10          0.7610    -1.0530    -0.0800 hn         1 WI4       0.527000
@<TRIPOS>BOND
     1     1     2 1   
     2     2     3 ar  
     3     2     7 ar  
     4     3     4 ar  
     5     3    20 1   
     6     4     5 ar  
     7     4    21 1   
     8     5     6 ar  
     9     5    22 1   
    10     6     7 ar  
    11     6    23 1   
    12     7     8 1   
    13     8     9 1   
    14     8    29 1   
    15     9    10 ar  
    16     9    11 ar  
    17    10    14 ar  
    18    11    12 ar  
    19    12    13 ar  
    20    12    24 1   
    21    13    14 ar  
    22    14    15 1   
    23    15    16 1   
    24    15    19 1   
    25    16    17 2   
    26    16    25 1   
    27    17    18 1   
    28    17    27 1   
    29    18    19 2   
    30    18    28 1   
    31    19    26 1   
@<TRIPOS>SUBSTRUCTURE
     1 WI4         1 TEMP              0 ****  ****    0 ROOT
