@<TRIPOS>MOLECULE
WI4
   29    31     1     0     0
SMALL
bcc


@<TRIPOS>ATOM
      1 CL           2.7930    -2.2350     0.5810 cl         1 WI4      -0.106400
      2 CAJ          3.2210    -0.6290     0.0900 ca         1 WI4      -0.007600
      3 CAI          4.5540    -0.2510     0.1260 ca         1 WI4      -0.103000
      4 CAA          4.9110     1.0350    -0.2460 ca         1 WI4      -0.130000
      5 CAB          3.9330     1.9250    -0.6680 ca         1 WI4      -0.109000
      6 CAC          2.6050     1.5370    -0.7210 ca         1 WI4      -0.115000
      7 CAK          2.2240     0.2540    -0.3300 ca         1 WI4       0.165600
      8 NAL          0.9000    -0.1880    -0.3980 nu         1 WI4      -0.728300
      9 CAM         -0.2130     0.4900    -0.0580 ca         1 WI4       0.954900
     10 NAN         -1.3620    -0.1640    -0.2390 nb         1 WI4      -0.835000
     11 NAD         -0.1150     1.7260     0.4350 nb         1 WI4      -0.804000
     12 CAE         -1.2700     2.2840     0.7390 ca         1 WI4       0.728900
     13 NAF         -2.4670     1.7400     0.6000 nb         1 WI4      -0.798000
     14 CAO         -2.4400     0.5060     0.1050 ca         1 WI4       0.824500
     15 NAP         -3.6540    -0.1280    -0.0630 na         1 WI4      -0.106900
     16 CAQ         -4.8880     0.4140     0.2370 cc         1 WI4      -0.120800
     17 CAR         -5.8350    -0.5120    -0.0670 cd         1 WI4      -0.190000
     18 CAH         -5.1620    -1.6680    -0.5730 cd         1 WI4      -0.190000
     19 CAG         -3.8280    -1.4050    -0.5590 cc         1 WI4      -0.120800
     20 HAI          5.3050    -0.9590     0.4510 ha         1 WI4       0.150000
     21 HAA          5.9500     1.3330    -0.2130 ha         1 WI4       0.140000
     22 HAB          4.2040     2.9260    -0.9740 ha         1 WI4       0.140000
     23 HAC          1.8560     2.2310    -1.0720 ha         1 WI4       0.156000
     24 HAE         -1.2350     3.2880     1.1470 h5         1 WI4       0.057100
     25 HAQ         -4.9750     1.4080     0.6390 h4         1 WI4       0.184500
     26 HAG         -2.9850    -2.0050    -0.8550 h4         1 WI4       0.184500
     27 HAR         -6.8990    -0.3870     0.0550 ha         1 WI4       0.154500
     28 HAH         -5.6160    -2.5860    -0.9080 ha         1 WI4       0.154500
     29 H10          0.7430    -1.1500    -0.6620 hn         1 WI4       0.471800
@<TRIPOS>BOND
     1     1     2 1   
     2     2     3 ar  
     3     2     7 ar  
     4     3     4 ar  
     5     3    20 1   
     6     4     5 ar  
     7     4    21 1   
     8     5     6 ar  
     9     5    22 1   
    10     6     7 ar  
    11     6    23 1   
    12     7     8 1   
    13     8     9 1   
    14     8    29 1   
    15     9    10 ar  
    16     9    11 ar  
    17    10    14 ar  
    18    11    12 ar  
    19    12    13 ar  
    20    12    24 1   
    21    13    14 ar  
    22    14    15 1   
    23    15    16 1   
    24    15    19 1   
    25    16    17 2   
    26    16    25 1   
    27    17    18 1   
    28    17    27 1   
    29    18    19 2   
    30    18    28 1   
    31    19    26 1   
@<TRIPOS>SUBSTRUCTURE
     1 WI4         1 TEMP              0 ****  ****    0 ROOT
