@<TRIPOS>MOLECULE
WI5
   58    63     1     0     0
SMALL
abcg2


@<TRIPOS>ATOM
      1 C1           5.3740     1.7750     1.5770 ca         1 WI5      -0.108000
      2 C10          1.0810    -2.0590     0.8840 ca         1 WI5      -0.097000
      3 C11          0.4140    -3.1490     1.4150 ca         1 WI5      -0.100000
      4 C12         -0.9490    -3.3970     1.1770 ca         1 WI5      -0.132000
      5 C13         -1.6700    -2.5140     0.3990 ca         1 WI5       0.116100
      6 C14         -3.6330    -1.4700    -0.2270 c6         1 WI5       0.146600
      7 C15         -2.9500    -0.6280    -1.3130 c6         1 WI5       0.060300
      8 C16         -3.7910     0.6340    -1.5370 c3         1 WI5       0.162800
      9 C17         -5.4250     2.1150    -0.5900 c6         1 WI5       0.126800
     10 C18         -5.9600     2.6700     0.7150 c6         1 WI5       0.153100
     11 C19         -3.8380     2.6160     1.6540 c6         1 WI5       0.153100
     12 C2           6.5430     0.9890     1.5280 ca         1 WI5      -0.107000
     13 C20         -3.2530     2.0500     0.3740 c6         1 WI5       0.126800
     14 C21          3.1440    -0.1390    -0.7480 ca         1 WI5      -0.142600
     15 C22          3.2070    -1.2970    -1.4840 ca         1 WI5      -0.072000
     16 C23          4.3780    -2.0750    -1.5230 ca         1 WI5      -0.119000
     17 C24          5.4730    -1.6910    -0.8030 ca         1 WI5      -0.084000
     18 C25          5.4450    -0.5180    -0.0130 ca         1 WI5      -0.047000
     19 C26          4.2700     0.2830     0.0180 ca         1 WI5       0.000000
     20 C27          4.2690     1.4350     0.8440 ca         1 WI5      -0.090000
     21 C3           6.5730    -0.1350     0.7500 ca         1 WI5      -0.101000
     22 C4           1.9070     0.6910    -0.8700 c          1 WI5       0.624900
     23 C5           0.6320     0.0090    -0.7130 cc         1 WI5      -0.254400
     24 C6          -0.5640     0.3970    -1.3180 cd         1 WI5       0.034700
     25 C7          -0.7710     1.4700    -2.3260 c3         1 WI5      -0.050900
     26 C8          -1.0010    -1.4060    -0.1020 ca         1 WI5      -0.135200
     27 C9           0.3610    -1.1700     0.0700 ca         1 WI5      -0.021800
     28 N1          -1.5500    -0.4480    -0.9150 na         1 WI5      -0.078700
     29 N2          -4.2630     1.2830    -0.3320 n3         1 WI5      -0.732600
     30 O1           1.9960     1.8810    -1.1370 o          1 WI5      -0.545100
     31 O2          -2.9700    -2.6910     0.0800 os         1 WI5      -0.329100
     32 O3          -4.9760     3.4090     1.4050 os         1 WI5      -0.446000
     33 H1           5.3500     2.6570     2.2030 ha         1 WI5       0.113000
     34 H2           2.1330    -1.9200     1.0860 ha         1 WI5       0.129000
     35 H3           0.9610    -3.8470     2.0350 ha         1 WI5       0.114000
     36 H4          -1.4270    -4.2750     1.5920 ha         1 WI5       0.127000
     37 H5          -3.7350    -0.8760     0.6830 h1         1 WI5       0.078200
     38 H6          -4.6310    -1.7340    -0.5720 h1         1 WI5       0.078200
     39 H7          -2.9540    -1.1820    -2.2570 h1         1 WI5       0.070700
     40 H8          -3.2860     1.3270    -2.2200 h1         1 WI5       0.046200
     41 H9          -4.6700     0.2800    -2.0810 h1         1 WI5       0.046200
     42 H11         -5.1950     2.9430    -1.2810 h1         1 WI5       0.045950
     43 H12         -6.8000     3.3390     0.5240 h1         1 WI5       0.053700
     44 H13         -6.3210     1.8390     1.3370 h1         1 WI5       0.053700
     45 H14         -4.0860     1.7890     2.3340 h1         1 WI5       0.053700
     46 H15         -3.1010     3.2490     2.1510 h1         1 WI5       0.053700
     47 H16          7.4080     1.2730     2.1110 ha         1 WI5       0.113000
     48 H17         -2.8580     2.8720    -0.2450 h1         1 WI5       0.045950
     49 H18         -2.4100     1.4130     0.6470 h1         1 WI5       0.045950
     50 H19          2.3450    -1.6130    -2.0570 ha         1 WI5       0.122000
     51 H20          4.4020    -2.9740    -2.1240 ha         1 WI5       0.116000
     52 H21          6.3790    -2.2850    -0.8230 ha         1 WI5       0.113000
     53 H22          3.3880     2.0560     0.9050 ha         1 WI5       0.128000
     54 H23          7.4620    -0.7530     0.7120 ha         1 WI5       0.112000
     55 H24         -1.3790     1.1150    -3.1580 hc         1 WI5       0.060700
     56 H25         -1.2670     2.3430    -1.9010 hc         1 WI5       0.060700
     57 H26          0.1810     1.8020    -2.7260 hc         1 WI5       0.060700
     58 H10         -6.2050     1.5120    -1.0620 h1         1 WI5       0.045950
@<TRIPOS>BOND
     1     1    12 ar  
     2     1    20 ar  
     3     1    33 1   
     4     2     3 ar  
     5     2    27 ar  
     6     2    34 1   
     7     3     4 ar  
     8     3    35 1   
     9     4     5 ar  
    10     4    36 1   
    11     5    26 ar  
    12     5    31 1   
    13     6     7 1   
    14     6    31 1   
    15     6    37 1   
    16     6    38 1   
    17     7     8 1   
    18     7    28 1   
    19     7    39 1   
    20     8    29 1   
    21     8    40 1   
    22     8    41 1   
    23     9    10 1   
    24     9    29 1   
    25     9    42 1   
    26     9    58 1   
    27    10    32 1   
    28    10    43 1   
    29    10    44 1   
    30    11    13 1   
    31    11    32 1   
    32    11    45 1   
    33    11    46 1   
    34    12    21 ar  
    35    12    47 1   
    36    13    29 1   
    37    13    48 1   
    38    13    49 1   
    39    14    15 ar  
    40    14    19 ar  
    41    14    22 1   
    42    15    16 ar  
    43    15    50 1   
    44    16    17 ar  
    45    16    51 1   
    46    17    18 ar  
    47    17    52 1   
    48    18    19 ar  
    49    18    21 ar  
    50    19    20 ar  
    51    20    53 1   
    52    21    54 1   
    53    22    23 1   
    54    22    30 2   
    55    23    24 2   
    56    23    27 1   
    57    24    25 1   
    58    24    28 1   
    59    25    55 1   
    60    25    56 1   
    61    25    57 1   
    62    26    27 ar  
    63    26    28 1   
@<TRIPOS>SUBSTRUCTURE
     1 WI5         1 TEMP              0 ****  ****    0 ROOT
