@<TRIPOS>MOLECULE
WI5
   58    63     1     0     0
SMALL
No Charge or Current Charge


@<TRIPOS>ATOM
      1 C1           5.7620     1.6950     1.4550 ca         1 WI5      -0.108000
      2 C10          1.1030    -1.7580     1.2110 ca         1 WI5      -0.097000
      3 C11          0.5530    -2.9810     1.6680 ca         1 WI5      -0.100000
      4 C12         -0.7530    -3.3750     1.2780 ca         1 WI5      -0.132000
      5 C13         -1.5170    -2.5250     0.4550 ca         1 WI5       0.116100
      6 C14         -3.6300    -1.7670    -0.4610 c6         1 WI5       0.146600
      7 C15         -2.8940    -0.7130    -1.3660 c6         1 WI5       0.060300
      8 C16         -3.8280     0.5240    -1.6000 c3         1 WI5       0.162800
      9 C17         -5.4490     2.2050    -0.7740 c6         1 WI5       0.126800
     10 C18         -6.0900     2.8730     0.4780 c6         1 WI5       0.153100
     11 C19         -4.0970     2.4680     1.7650 c6         1 WI5       0.153100
     12 C2           6.8380     0.8200     1.2510 ca         1 WI5      -0.107000
     13 C20         -3.4140     1.7810     0.5450 c6         1 WI5       0.126800
     14 C21          3.0890     0.0240    -0.6070 ca         1 WI5      -0.142600
     15 C22          2.9660    -1.1470    -1.3890 ca         1 WI5      -0.072000
     16 C23          4.0510    -2.0190    -1.5580 ca         1 WI5      -0.119000
     17 C24          5.2800    -1.7330    -0.9500 ca         1 WI5      -0.084000
     18 C25          5.4270    -0.5770    -0.1640 ca         1 WI5      -0.047000
     19 C26          4.3360     0.3110     0.0180 ca         1 WI5       0.000000
     20 C27          4.5190     1.4430     0.8480 ca         1 WI5      -0.090000
     21 C3           6.6690    -0.3160     0.4460 ca         1 WI5      -0.101000
     22 C4           1.8920     0.9430    -0.4920 c          1 WI5       0.624900
     23 C5           0.5730     0.2800    -0.3330 cc         1 WI5      -0.254400
     24 C6          -0.5480     0.5250    -1.1420 cd         1 WI5       0.034700
     25 C7          -0.7000     1.5380    -2.2520 c3         1 WI5      -0.050900
     26 C8          -0.9490    -1.3260     0.0420 ca         1 WI5      -0.135200
     27 C9           0.3130    -0.9550     0.3700 ca         1 WI5      -0.021800
     28 N1          -1.5440    -0.4290    -0.8010 na         1 WI5      -0.078700
     29 N2          -4.4170     1.1870    -0.4000 n3         1 WI5      -0.732600
     30 O1           1.9860     2.1420    -0.7290 o          1 WI5      -0.545100
     31 O2          -2.7760    -2.8540     0.0060 os         1 WI5      -0.329100
     32 O3          -5.0630     3.4490     1.3190 os         1 WI5      -0.446000
     33 H1           5.8880     2.5710     2.0880 ha         1 WI5       0.113000
     34 H2           2.1120    -1.4640     1.4900 ha         1 WI5       0.129000
     35 H3           1.1450    -3.6310     2.3100 ha         1 WI5       0.114000
     36 H4          -1.1650    -4.3240     1.6120 ha         1 WI5       0.127000
     37 H5          -4.0180    -1.2570     0.4320 h1         1 WI5       0.078200
     38 H6          -4.4920    -2.1900    -0.9940 h1         1 WI5       0.078200
     39 H7          -2.7280    -1.1750    -2.3480 h1         1 WI5       0.070700
     40 H8          -3.3030     1.2650    -2.2120 h1         1 WI5       0.046200
     41 H9          -4.6530     0.1580    -2.2270 h1         1 WI5       0.046200
     42 H11         -5.0000     2.9920    -1.3980 h1         1 WI5       0.045950
     43 H12         -6.7860     3.6640     0.1660 h1         1 WI5       0.053700
     44 H13         -6.6560     2.1260     1.0540 h1         1 WI5       0.053700
     45 H14         -4.6060     1.7120     2.3810 h1         1 WI5       0.053700
     46 H15         -3.3400     2.9640     2.3870 h1         1 WI5       0.053700
     47 H16          7.7980     1.0170     1.7220 ha         1 WI5       0.113000
     48 H17         -2.7900     2.5240     0.0260 h1         1 WI5       0.045950
     49 H18         -2.7410     1.0080     0.9390 h1         1 WI5       0.045950
     50 H19          2.0260    -1.3800    -1.8850 ha         1 WI5       0.122000
     51 H20          3.9400    -2.9140    -2.1650 ha         1 WI5       0.116000
     52 H21          6.1170    -2.4140    -1.0890 ha         1 WI5       0.113000
     53 H22          3.7090     2.1370     1.0460 ha         1 WI5       0.128000
     54 H23          7.5050    -0.9970     0.3000 ha         1 WI5       0.112000
     55 H24         -1.2610     1.1210    -3.0970 hc         1 WI5       0.060700
     56 H25         -1.2210     2.4350    -1.9000 hc         1 WI5       0.060700
     57 H26          0.2700     1.8510    -2.6530 hc         1 WI5       0.060700
     58 H10         -6.2480     1.7390    -1.3690 h1         1 WI5       0.045950
@<TRIPOS>BOND
     1     1    12 ar  
     2     1    20 ar  
     3     1    33 1   
     4     2     3 ar  
     5     2    27 ar  
     6     2    34 1   
     7     3     4 ar  
     8     3    35 1   
     9     4     5 ar  
    10     4    36 1   
    11     5    26 ar  
    12     5    31 1   
    13     6     7 1   
    14     6    31 1   
    15     6    37 1   
    16     6    38 1   
    17     7     8 1   
    18     7    28 1   
    19     7    39 1   
    20     8    29 1   
    21     8    40 1   
    22     8    41 1   
    23     9    10 1   
    24     9    29 1   
    25     9    42 1   
    26     9    58 1   
    27    10    32 1   
    28    10    43 1   
    29    10    44 1   
    30    11    13 1   
    31    11    32 1   
    32    11    45 1   
    33    11    46 1   
    34    12    21 ar  
    35    12    47 1   
    36    13    29 1   
    37    13    48 1   
    38    13    49 1   
    39    14    15 ar  
    40    14    19 ar  
    41    14    22 1   
    42    15    16 ar  
    43    15    50 1   
    44    16    17 ar  
    45    16    51 1   
    46    17    18 ar  
    47    17    52 1   
    48    18    19 ar  
    49    18    21 ar  
    50    19    20 ar  
    51    20    53 1   
    52    21    54 1   
    53    22    23 1   
    54    22    30 2   
    55    23    24 2   
    56    23    27 1   
    57    24    25 1   
    58    24    28 1   
    59    25    55 1   
    60    25    56 1   
    61    25    57 1   
    62    26    27 ar  
    63    26    28 1   
@<TRIPOS>SUBSTRUCTURE
     1 WI5         1 TEMP              0 ****  ****    0 ROOT
