@<TRIPOS>MOLECULE
WI8
   41    44     1     0     0
SMALL
No Charge or Current Charge


@<TRIPOS>ATOM
      1 C01          6.0730     6.5700    17.8550 ce         1 WI8      -0.297400
      2 C02          6.9050     6.7390    16.7710 cf         1 WI8      -0.004400
      3 C04          8.2490     6.8660    18.7900 c5         1 WI8      -0.082400
      4 C05          6.7510     7.0080    19.1600 c5         1 WI8      -0.029200
      5 C06          4.6650     6.0250    17.9910 c          1 WI8       0.642300
      6 C07          6.7040     6.4850    15.2840 c          1 WI8       0.715200
      7 C13          0.4240     5.3000    19.3360 ca         1 WI8       0.056100
      8 C15          2.7630     5.9180    19.7220 ca         1 WI8       0.085000
      9 C16          2.5240     5.9000    21.1260 ca         1 WI8      -0.268500
     10 C17          1.2310     5.5790    21.6020 ca         1 WI8      -0.033000
     11 C18          3.5510     6.2650    22.1170 cc         1 WI8       0.597500
     12 C20          5.1680     7.0460    23.1930 cd         1 WI8       0.616300
     13 C23          6.4090     7.7910    23.5430 cx         1 WI8      -0.196000
     14 C25          7.7310     7.4630    22.8790 cx         1 WI8      -0.101400
     15 C26          7.0570     8.7860    22.6000 cx         1 WI8      -0.101400
     16 C03          8.2490     7.2820    17.3010 c5         1 WI8      -0.065200
     17 N08          4.0610     6.2290    19.2280 ns         1 WI8      -0.154000
     18 O09          4.1030     5.4300    17.0840 o          1 WI8      -0.547100
     19 O10          5.6120     6.1470    14.8540 o          1 WI8      -0.703000
     20 O11          7.6570     6.6790    14.5400 o          1 WI8      -0.703000
     21 C12          0.1910     5.2730    20.7140 ca         1 WI8      -0.165000
     22 C14          1.6940     5.6240    18.8440 ca         1 WI8      -0.146000
     23 N19          4.6080     7.0270    21.9380 nd         1 WI8      -0.772000
     24 N21          4.5190     6.3430    24.1060 nc         1 WI8      -0.397300
     25 O22          3.4220     5.8130    23.3970 os         1 WI8      -0.120700
     26 H29          8.5810     5.8280    18.9040 hc         1 WI8       0.028700
     27 H30          8.9010     7.4920    19.4090 hc         1 WI8       0.028700
     28 H31          6.4870     8.0410    19.4140 hc         1 WI8       0.029200
     29 H32          6.5140     6.3680    20.0160 hc         1 WI8       0.029200
     30 H37          1.0160     5.5740    22.6700 ha         1 WI8       0.122000
     31 H38          6.4490     8.0420    24.6000 hc         1 WI8       0.095700
     32 H40          8.6260     7.4700    23.4980 hc         1 WI8       0.082450
     33 H39          7.7360     6.7180    22.0870 hc         1 WI8       0.082450
     34 H42          6.6100     8.9350    21.6210 hc         1 WI8       0.082450
     35 H41          7.4990     9.6810    23.0330 hc         1 WI8       0.082450
     36 H28          9.1120     6.8640    16.7710 hc         1 WI8       0.061700
     37 H27          8.2950     8.3710    17.1880 hc         1 WI8       0.061700
     38 H33          4.6510     6.6950    19.9060 hn         1 WI8       0.188000
     39 H35         -0.7970     5.0280    21.0960 ha         1 WI8       0.126000
     40 H36          1.8230     5.6550    17.7670 ha         1 WI8       0.188000
     41 Br24        -1.0000     4.9060    18.1220 br         1 WI8      -0.113100
@<TRIPOS>BOND
     1     1     2 2   
     2     1     4 1   
     3     1     5 1   
     4     2     6 1   
     5     2    16 1   
     6     3     4 1   
     7     3    16 1   
     8     3    26 1   
     9     3    27 1   
    10     4    28 1   
    11     4    29 1   
    12     5    17 1   
    13     5    18 2   
    14     6    19 1   
    15     6    20 1   
    16     7    21 ar  
    17     7    22 ar  
    18     7    41 1   
    19     8     9 ar  
    20     8    17 1   
    21     8    22 ar  
    22     9    10 ar  
    23     9    11 1   
    24    10    21 ar  
    25    10    30 1   
    26    11    23 2   
    27    11    25 1   
    28    12    13 1   
    29    12    23 1   
    30    12    24 2   
    31    13    14 1   
    32    13    15 1   
    33    13    31 1   
    34    14    15 1   
    35    14    32 1   
    36    14    33 1   
    37    15    34 1   
    38    15    35 1   
    39    16    36 1   
    40    16    37 1   
    41    17    38 1   
    42    21    39 1   
    43    22    40 1   
    44    24    25 1   
@<TRIPOS>SUBSTRUCTURE
     1 WI8         1 TEMP              0 ****  ****    0 ROOT
