@<TRIPOS>MOLECULE
WI8
   41    44     1     0     0
SMALL
abcg2


@<TRIPOS>ATOM
      1 C01          6.1050     6.5930    17.9910 ce         1 WI8      -0.297400
      2 C02          6.8110     6.7150    16.8510 cf         1 WI8      -0.004400
      3 C04          8.3690     7.0270    18.6540 c5         1 WI8      -0.082400
      4 C05          6.9310     6.9820    19.2020 c5         1 WI8      -0.029200
      5 C06          4.6890     6.2040    18.0440 c          1 WI8       0.642300
      6 C07          6.3960     6.4860    15.4190 c          1 WI8       0.715200
      7 C13          0.6070     5.1850    19.2730 ca         1 WI8       0.056100
      8 C15          2.8540     5.9330    19.7220 ca         1 WI8       0.085000
      9 C16          2.4940     6.0680    21.0910 ca         1 WI8      -0.268500
     10 C17          1.1930     5.7460    21.4980 ca         1 WI8      -0.033000
     11 C18          3.4270     6.5340    22.1000 cc         1 WI8       0.597500
     12 C20          5.0570     7.2250    23.2560 cd         1 WI8       0.616300
     13 C23          6.3930     7.6780    23.6380 cx         1 WI8      -0.196000
     14 C25          7.6100     7.0960    22.9500 cx         1 WI8      -0.101400
     15 C26          7.2120     8.5080    22.6720 cx         1 WI8      -0.101400
     16 C03          8.2090     7.2060    17.1320 c5         1 WI8      -0.065200
     17 N08          4.1430     6.2420    19.3180 ns         1 WI8      -0.154000
     18 O09          4.0400     5.8760    17.0520 o          1 WI8      -0.547100
     19 O10          6.5950     5.3350    14.9620 o          1 WI8      -0.703000
     20 O11          5.9700     7.4910    14.8010 o          1 WI8      -0.703000
     21 C12          0.2370     5.3030    20.6060 ca         1 WI8      -0.165000
     22 C14          1.8770     5.4840    18.8200 ca         1 WI8      -0.146000
     23 N19          4.6860     6.8640    21.9790 nd         1 WI8      -0.772000
     24 N21          4.0870     7.1260    24.1270 nc         1 WI8      -0.397300
     25 O22          2.9930     6.6660    23.3640 os         1 WI8      -0.120700
     26 H29          8.8630     6.0740    18.8550 hc         1 WI8       0.028700
     27 H30          8.9680     7.8130    19.1120 hc         1 WI8       0.028700
     28 H31          6.6140     7.9580    19.5820 hc         1 WI8       0.029200
     29 H32          6.8350     6.2750    20.0260 hc         1 WI8       0.029200
     30 H37          0.9310     5.8480    22.5410 ha         1 WI8       0.122000
     31 H38          6.4850     7.9110    24.6900 hc         1 WI8       0.095700
     32 H40          8.4740     6.9140    23.5730 hc         1 WI8       0.082450
     33 H39          7.4300     6.3590    22.1800 hc         1 WI8       0.082450
     34 H42          6.7630     8.7290    21.7140 hc         1 WI8       0.082450
     35 H41          7.7990     9.3070    23.1030 hc         1 WI8       0.082450
     36 H28          8.9590     6.6650    16.5520 hc         1 WI8       0.061700
     37 H27          8.2800     8.2580    16.8320 hc         1 WI8       0.061700
     38 H33          4.7560     6.5440    20.0700 hn         1 WI8       0.188000
     39 H35         -0.7610     5.0600    20.9380 ha         1 WI8       0.126000
     40 H36          2.1350     5.3800    17.7820 ha         1 WI8       0.188000
     41 BR24        -0.6930     4.5890    18.0050 br         1 WI8      -0.113100
@<TRIPOS>BOND
     1     1     2 2   
     2     1     4 1   
     3     1     5 1   
     4     2     6 1   
     5     2    16 1   
     6     3     4 1   
     7     3    16 1   
     8     3    26 1   
     9     3    27 1   
    10     4    28 1   
    11     4    29 1   
    12     5    17 1   
    13     5    18 2   
    14     6    19 1   
    15     6    20 1   
    16     7    21 ar  
    17     7    22 ar  
    18     7    41 1   
    19     8     9 ar  
    20     8    17 1   
    21     8    22 ar  
    22     9    10 ar  
    23     9    11 1   
    24    10    21 ar  
    25    10    30 1   
    26    11    23 2   
    27    11    25 1   
    28    12    13 1   
    29    12    23 1   
    30    12    24 2   
    31    13    14 1   
    32    13    15 1   
    33    13    31 1   
    34    14    15 1   
    35    14    32 1   
    36    14    33 1   
    37    15    34 1   
    38    15    35 1   
    39    16    36 1   
    40    16    37 1   
    41    17    38 1   
    42    21    39 1   
    43    22    40 1   
    44    24    25 1   
@<TRIPOS>SUBSTRUCTURE
     1 WI8         1 TEMP              0 ****  ****    0 ROOT
