@<TRIPOS>MOLECULE
WIA
   25    25     1     0     0
SMALL
bcc


@<TRIPOS>ATOM
      1 C1           1.1510     0.2550    -0.6450 c6         1 WIA       0.317900
      2 CM           3.4390     0.1150    -0.1240 c3         1 WIA       0.125700
      3 O1           2.3190    -0.4580    -0.7740 os         1 WIA      -0.393600
      4 C2           0.1440    -0.2590    -1.6720 c6         1 WIA       0.087100
      5 O2           0.5660     0.0280    -2.9830 oh         1 WIA      -0.607800
      6 C3          -1.1870     0.4570    -1.4610 c6         1 WIA       0.166100
      7 O3          -2.1870    -0.0120    -2.3230 oh         1 WIA      -0.575800
      8 C4          -1.6620     0.2970    -0.0220 c6         1 WIA       0.132100
      9 O4          -1.9720    -1.0490     0.2050 oh         1 WIA      -0.559800
     10 C5          -0.5170     0.7850     0.8970 c6         1 WIA       0.058100
     11 O5           0.6560     0.0700     0.6620 os         1 WIA      -0.396600
     12 C6          -0.9290     0.6790     2.3200 cs         1 WIA       0.235200
     13 S1          -0.2490    -0.2530     3.4390 s          1 WIA      -0.250400
     14 H1           1.3260     1.3350    -0.8190 h2         1 WIA       0.025700
     15 HMC1         4.3180    -0.4410    -0.4430 h1         1 WIA       0.039367
     16 HMC2         3.5680     1.1650    -0.4040 h1         1 WIA       0.039367
     17 HMC3         3.3610     0.0520     0.9640 h1         1 WIA       0.039367
     18 H2           0.0070    -1.3390    -1.5200 h1         1 WIA       0.089700
     19 HA           1.2810    -0.5720    -3.2150 ho         1 WIA       0.427000
     20 H3          -1.0120     1.5350    -1.6110 h1         1 WIA       0.034700
     21 HB          -1.8830     0.1140    -3.2280 ho         1 WIA       0.423000
     22 H4          -2.5290     0.9530     0.1350 h1         1 WIA       0.050700
     23 HC          -2.4850    -1.1250     1.0150 ho         1 WIA       0.407000
     24 H5          -0.3840     1.8650     0.6970 h1         1 WIA       0.053700
     25 H6          -1.7910     1.3020     2.5640 h4         1 WIA       0.034200
@<TRIPOS>BOND
     1     1     3 1   
     2     1     4 1   
     3     1    11 1   
     4     1    14 1   
     5     2     3 1   
     6     2    15 1   
     7     2    16 1   
     8     2    17 1   
     9     4     5 1   
    10     4     6 1   
    11     4    18 1   
    12     5    19 1   
    13     6     7 1   
    14     6     8 1   
    15     6    20 1   
    16     7    21 1   
    17     8     9 1   
    18     8    10 1   
    19     8    22 1   
    20     9    23 1   
    21    10    11 1   
    22    10    12 1   
    23    10    24 1   
    24    12    13 2   
    25    12    25 1   
@<TRIPOS>SUBSTRUCTURE
     1 WIA         1 TEMP              0 ****  ****    0 ROOT
