@<TRIPOS>MOLECULE
WIA
   25    25     1     0     0
SMALL
No Charge or Current Charge


@<TRIPOS>ATOM
      1 C1           1.1330     0.1820    -0.7330 c6         1 WIA       0.364300
      2 CM           3.4860    -0.3110    -0.3080 c3         1 WIA       0.148900
      3 O1           2.2840    -0.6270    -1.0310 os         1 WIA      -0.440000
      4 C2          -0.0440    -0.1800    -1.6950 c6         1 WIA       0.110300
      5 O2           0.3080    -0.0110    -3.0940 oh         1 WIA      -0.730000
      6 C3          -1.2830     0.6900    -1.3230 c6         1 WIA       0.189300
      7 O3          -2.3990     0.3340    -2.1580 oh         1 WIA      -0.638000
      8 C4          -1.6480     0.5280     0.1890 c6         1 WIA       0.155300
      9 O4          -2.1740    -0.7930     0.4290 oh         1 WIA      -0.682000
     10 C5          -0.3760     0.8000     1.0520 c6         1 WIA       0.081300
     11 O5           0.7250    -0.0460     0.6300 os         1 WIA      -0.443000
     12 C6          -0.6140     0.5750     2.5710 cs         1 WIA       0.235200
     13 S1          -0.9060     1.8030     3.6730 s          1 WIA      -0.250400
     14 H1           1.3970     1.2430    -0.8640 h2         1 WIA       0.025700
     15 HMC1         4.3070    -0.9650    -0.6280 h1         1 WIA       0.039367
     16 HMC2         3.7880     0.7290    -0.4890 h1         1 WIA       0.039367
     17 HMC3         3.3430    -0.4480     0.7720 h1         1 WIA       0.039367
     18 H2          -0.2970    -1.2330    -1.5010 h1         1 WIA       0.089700
     19 HA           1.1920    -0.4370    -3.2090 ho         1 WIA       0.526000
     20 H3          -1.0210     1.7450    -1.4950 h1         1 WIA       0.034700
     21 HB          -2.0110     0.2280    -3.0580 ho         1 WIA       0.462000
     22 H4          -2.4070     1.2830     0.4440 h1         1 WIA       0.050700
     23 HC          -2.7780    -0.9680    -0.3310 ho         1 WIA       0.506000
     24 H5          -0.0750     1.8510     0.9320 h1         1 WIA       0.053700
     25 H6          -0.5820    -0.4740     2.8800 h4         1 WIA       0.034200
@<TRIPOS>BOND
     1     1     3 1   
     2     1     4 1   
     3     1    11 1   
     4     1    14 1   
     5     2     3 1   
     6     2    15 1   
     7     2    16 1   
     8     2    17 1   
     9     4     5 1   
    10     4     6 1   
    11     4    18 1   
    12     5    19 1   
    13     6     7 1   
    14     6     8 1   
    15     6    20 1   
    16     7    21 1   
    17     8     9 1   
    18     8    10 1   
    19     8    22 1   
    20     9    23 1   
    21    10    11 1   
    22    10    12 1   
    23    10    24 1   
    24    12    13 2   
    25    12    25 1   
@<TRIPOS>SUBSTRUCTURE
     1 WIA         1 TEMP              0 ****  ****    0 ROOT
