@<TRIPOS>MOLECULE
WIB
   38    39     1     0     0
SMALL
abcg2


@<TRIPOS>ATOM
      1 N1           8.6130    -3.0150    21.9220 no         1 WIB       0.690200
      2 C4           9.3290    -5.2900    21.1010 ca         1 WIB       0.470000
      3 C5           7.7290    -6.9590    20.1710 c6         1 WIB       0.226500
      4 C6           6.4270    -6.8010    19.3910 c6         1 WIB      -0.090400
      5 C7           6.1200    -8.0820    18.5910 c6         1 WIB      -0.071400
      6 C8           6.6600    -9.3490    19.2820 c6         1 WIB      -0.080400
      7 C10          7.5890    -8.0560    21.2490 c6         1 WIB      -0.090400
      8 C13         13.8720    -4.5870    23.9390 c3         1 WIB       0.253000
      9 O1          14.5240    -4.8220    21.3690 o          1 WIB      -0.483500
     10 S1          13.5980    -4.0350    22.1450 sy         1 WIB       1.108500
     11 C1          11.9700    -4.5140    21.7640 ca         1 WIB      -0.397500
     12 C2          10.9310    -3.6350    21.9800 ca         1 WIB       0.128000
     13 C3           9.6290    -4.0010    21.6630 ca         1 WIB      -0.312200
     14 O2           8.9420    -1.9200    22.3710 o          1 WIB      -0.414500
     15 O3           7.4300    -3.2950    21.6850 o          1 WIB      -0.414500
     16 N2           8.1020    -5.6740    20.7570 nu         1 WIB      -0.918200
     17 C9           6.6430    -9.1870    20.8010 c6         1 WIB      -0.071400
     18 C11         10.4440    -6.1600    20.9050 ca         1 WIB      -0.239000
     19 C12         11.7180    -5.7910    21.2210 ca         1 WIB       0.082000
     20 CL1         15.5430    -4.1600    24.3360 cl         1 WIB      -0.150500
     21 BR1         12.6240    -3.6400    25.1060 br         1 WIB      -0.141000
     22 CL2         13.6210    -6.3310    24.0520 cl         1 WIB      -0.150500
     23 O4          13.7060    -2.5970    22.1700 o          1 WIB      -0.483500
     24 H1           8.5110    -7.2370    19.4620 h1         1 WIB       0.065700
     25 H2           6.4960    -5.9420    18.7220 hc         1 WIB       0.053450
     26 H3           5.6220    -6.5900    20.1010 hc         1 WIB       0.053450
     27 H4           6.5490    -8.0010    17.5900 hc         1 WIB       0.048450
     28 H5           5.0380    -8.1640    18.4630 hc         1 WIB       0.048450
     29 H6           6.0710   -10.2180    18.9810 hc         1 WIB       0.045200
     30 H7           7.6870    -9.5410    18.9560 hc         1 WIB       0.045200
     31 H8           7.2120    -7.5920    22.1630 hc         1 WIB       0.053450
     32 H9           8.5760    -8.4600    21.4810 hc         1 WIB       0.053450
     33 H10         11.1100    -2.6520    22.3860 ha         1 WIB       0.173000
     34 H11          7.3600    -5.0200    20.9660 hn         1 WIB       0.538000
     35 H12          5.6220    -8.9630    21.1220 hc         1 WIB       0.048450
     36 H13          6.9260   -10.1190    21.2940 hc         1 WIB       0.048450
     37 H14         10.2720    -7.1420    20.4950 ha         1 WIB       0.133000
     38 H15         12.5350    -6.4760    21.0490 ha         1 WIB       0.146000
@<TRIPOS>BOND
     1     1    13 1   
     2     1    14 1   
     3     1    15 1   
     4     2    13 ar  
     5     2    16 1   
     6     2    18 ar  
     7     3     4 1   
     8     3     7 1   
     9     3    16 1   
    10     3    24 1   
    11     4     5 1   
    12     4    25 1   
    13     4    26 1   
    14     5     6 1   
    15     5    27 1   
    16     5    28 1   
    17     6    17 1   
    18     6    29 1   
    19     6    30 1   
    20     7    17 1   
    21     7    31 1   
    22     7    32 1   
    23     8    10 1   
    24     8    20 1   
    25     8    21 1   
    26     8    22 1   
    27     9    10 2   
    28    10    11 1   
    29    10    23 2   
    30    11    12 ar  
    31    11    19 ar  
    32    12    13 ar  
    33    12    33 1   
    34    16    34 1   
    35    17    35 1   
    36    17    36 1   
    37    18    19 ar  
    38    18    37 1   
    39    19    38 1   
@<TRIPOS>SUBSTRUCTURE
     1 WIB         1 TEMP              0 ****  ****    0 ROOT
