@<TRIPOS>MOLECULE
WIB
   38    39     1     0     0
SMALL
No Charge or Current Charge


@<TRIPOS>ATOM
      1 N1           8.4110    -3.1650    21.9120 no         1 WIB       0.690200
      2 C4           9.4710    -5.1070    20.6500 ca         1 WIB       0.470000
      3 C5           7.8320    -6.8660    19.8500 c6         1 WIB       0.226500
      4 C6           6.4370    -6.8770    19.1840 c6         1 WIB      -0.090400
      5 C7           5.9860    -8.3240    18.8240 c6         1 WIB      -0.071400
      6 C8           6.5950    -9.4070    19.7610 c6         1 WIB      -0.080400
      7 C10          7.8080    -7.6540    21.1960 c6         1 WIB      -0.090400
      8 C13         13.6980    -5.0760    23.9820 c3         1 WIB       0.253000
      9 O1          14.6220    -4.4710    21.5240 o          1 WIB      -0.483500
     10 S1          13.5830    -4.0190    22.4650 sy         1 WIB       1.108500
     11 C1          11.9770    -4.4350    21.7420 ca         1 WIB      -0.397500
     12 C2          10.8380    -3.6800    22.0780 ca         1 WIB       0.128000
     13 C3           9.5770    -4.0110    21.5330 ca         1 WIB      -0.312200
     14 O2           8.6400    -2.0170    22.3110 o          1 WIB      -0.414500
     15 O3           7.2740    -3.6450    21.8510 o          1 WIB      -0.414500
     16 N2           8.2540    -5.4760    20.0790 nu         1 WIB      -0.918200
     17 C9           6.8220    -8.8580    21.1900 c6         1 WIB      -0.071400
     18 C11         10.6210    -5.8350    20.3090 ca         1 WIB      -0.239000
     19 C12         11.8700    -5.5120    20.8490 ca         1 WIB       0.082000
     20 Cl1         15.2540    -4.8010    24.8910 cl         1 WIB      -0.150500
     21 Br1         12.1990    -4.6540    25.2340 br         1 WIB      -0.141000
     22 Cl2         13.5930    -6.8560    23.5990 cl         1 WIB      -0.150500
     23 O4          13.5250    -2.6130    22.8970 o          1 WIB      -0.483500
     24 H1           8.5260    -7.3680    19.1580 h1         1 WIB       0.065700
     25 H2           6.4410    -6.2580    18.2760 hc         1 WIB       0.053450
     26 H3           5.7030    -6.4240    19.8650 hc         1 WIB       0.053450
     27 H4           6.2660    -8.5540    17.7860 hc         1 WIB       0.048450
     28 H5           4.8890    -8.3750    18.8590 hc         1 WIB       0.048450
     29 H6           5.9370   -10.2860    19.7910 hc         1 WIB       0.045200
     30 H7           7.5530    -9.7550    19.3510 hc         1 WIB       0.045200
     31 H8           7.5350    -6.9870    22.0260 hc         1 WIB       0.053450
     32 H9           8.8240    -8.0090    21.4160 hc         1 WIB       0.053450
     33 H10         10.9320    -2.8410    22.7700 ha         1 WIB       0.173000
     34 H11          7.5030    -4.8410    20.3580 hn         1 WIB       0.538000
     35 H12          5.8560    -8.5440    21.6100 hc         1 WIB       0.048450
     36 H13          7.1980    -9.6540    21.8480 hc         1 WIB       0.048450
     37 H14         10.5590    -6.6620    19.6100 ha         1 WIB       0.133000
     38 H15         12.7440    -6.1010    20.5680 ha         1 WIB       0.146000
@<TRIPOS>BOND
     1     1    13 1   
     2     1    14 1   
     3     1    15 1   
     4     2    13 ar  
     5     2    16 1   
     6     2    18 ar  
     7     3     4 1   
     8     3     7 1   
     9     3    16 1   
    10     3    24 1   
    11     4     5 1   
    12     4    25 1   
    13     4    26 1   
    14     5     6 1   
    15     5    27 1   
    16     5    28 1   
    17     6    17 1   
    18     6    29 1   
    19     6    30 1   
    20     7    17 1   
    21     7    31 1   
    22     7    32 1   
    23     8    10 1   
    24     8    20 1   
    25     8    21 1   
    26     8    22 1   
    27     9    10 2   
    28    10    11 1   
    29    10    23 2   
    30    11    12 ar  
    31    11    19 ar  
    32    12    13 ar  
    33    12    33 1   
    34    16    34 1   
    35    17    35 1   
    36    17    36 1   
    37    18    19 ar  
    38    18    37 1   
    39    19    38 1   
@<TRIPOS>SUBSTRUCTURE
     1 WIB         1 TEMP              0 ****  ****    0 ROOT
