@<TRIPOS>MOLECULE
WIC
   44    45     1     0     0
SMALL
No Charge or Current Charge


@<TRIPOS>ATOM
      1 CA           6.1260     6.2110    16.4310 c3         1 WIC       0.029300
      2 C            5.7710     5.4710    15.0940 c          1 WIC       0.697000
      3 OT1          5.5280     4.2700    15.1120 o          1 WIC      -0.713000
      4 OT2          5.6910     6.1440    14.0750 o          1 WIC      -0.713000
      5 CG           4.6380     5.3220    18.2160 ca         1 WIC       0.185100
      6 CD1          4.5700     4.7230    19.4850 ca         1 WIC      -0.175000
      7 CD2          3.4630     5.8450    17.6330 ca         1 WIC      -0.175000
      8 CE1          3.3480     4.6490    20.1750 ca         1 WIC      -0.080500
      9 CE2          2.2410     5.7690    18.3230 ca         1 WIC      -0.080500
     10 CZ           2.1780     5.1730    19.5960 ca         1 WIC      -0.149300
     11 CH           0.8520     5.1070    20.3390 c3         1 WIC      -0.027800
     12 C13          7.6220     6.6400    16.4760 c3         1 WIC      -0.063400
     13 C14          7.9290     7.8250    17.4330 c3         1 WIC      -0.069400
     14 C15          7.7790     7.5060    18.9390 c3         1 WIC      -0.116400
     15 C16          7.9640     8.7370    19.8550 c3         1 WIC       0.161600
     16 O17          7.7110     8.3400    21.2190 os         1 WIC      -0.363100
     17 C25          6.4570     7.9830    21.6840 ca         1 WIC       0.148100
     18 C26          6.3850     7.3210    22.9210 ca         1 WIC      -0.159500
     19 C27          5.1430     6.9130    23.4410 ca         1 WIC      -0.064000
     20 C28          3.9640     7.1720    22.7230 ca         1 WIC       0.089000
     21 Cl24         2.4110     6.6610    23.3710 cl         1 WIC      -0.232000
     22 C29          4.0240     7.8450    21.4910 ca         1 WIC      -0.064000
     23 C30          5.2660     8.2560    20.9720 ca         1 WIC      -0.159500
     24 OB           5.8770     5.4020    17.6110 os         1 WIC      -0.346100
     25 HA1          5.5280     7.1310    16.4620 h1         1 WIC       0.026700
     26 HD11         5.4740     4.3290    19.9400 ha         1 WIC       0.127500
     27 HD21         3.4800     6.3090    16.6520 ha         1 WIC       0.127500
     28 HE11         3.3160     4.1910    21.1610 ha         1 WIC       0.094000
     29 HE21         1.3410     6.1770    17.8680 ha         1 WIC       0.094000
     30 HH2          0.0560     4.7190    19.6910 hc         1 WIC       0.027033
     31 HH1          0.9100     4.4540    21.2180 hc         1 WIC       0.027033
     32 HH3          0.5480     6.1030    20.6830 hc         1 WIC       0.027033
     33 H132         8.2500     5.7770    16.7300 hc         1 WIC       0.059700
     34 H131         7.9240     6.9480    15.4680 hc         1 WIC       0.059700
     35 H141         8.9570     8.1640    17.2500 hc         1 WIC       0.023700
     36 H142         7.2740     8.6660    17.1750 hc         1 WIC       0.023700
     37 H152         6.7860     7.0900    19.1210 hc         1 WIC       0.064700
     38 H151         8.5030     6.7330    19.2220 hc         1 WIC       0.064700
     39 H161         8.9950     9.1010    19.7550 h1         1 WIC       0.045700
     40 H162         7.2960     9.5520    19.5480 h1         1 WIC       0.045700
     41 H261         7.2970     7.1140    23.4750 ha         1 WIC       0.126500
     42 H271         5.0930     6.3960    24.3960 ha         1 WIC       0.126500
     43 H291         3.1090     8.0430    20.9380 ha         1 WIC       0.126500
     44 H301         5.2840     8.7780    20.0200 ha         1 WIC       0.126500
@<TRIPOS>BOND
     1     1     2 1   
     2     1    12 1   
     3     1    24 1   
     4     1    25 1   
     5     2     3 1   
     6     2     4 1   
     7     5     6 ar  
     8     5     7 ar  
     9     5    24 1   
    10     6     8 ar  
    11     6    26 1   
    12     7     9 ar  
    13     7    27 1   
    14     8    10 ar  
    15     8    28 1   
    16     9    10 ar  
    17     9    29 1   
    18    10    11 1   
    19    11    30 1   
    20    11    31 1   
    21    11    32 1   
    22    12    13 1   
    23    12    33 1   
    24    12    34 1   
    25    13    14 1   
    26    13    35 1   
    27    13    36 1   
    28    14    15 1   
    29    14    37 1   
    30    14    38 1   
    31    15    16 1   
    32    15    39 1   
    33    15    40 1   
    34    16    17 1   
    35    17    18 ar  
    36    17    23 ar  
    37    18    19 ar  
    38    18    41 1   
    39    19    20 ar  
    40    19    42 1   
    41    20    21 1   
    42    20    22 ar  
    43    22    23 ar  
    44    22    43 1   
    45    23    44 1   
@<TRIPOS>SUBSTRUCTURE
     1 WIC         1 TEMP              0 ****  ****    0 ROOT
