@<TRIPOS>MOLECULE
WIC
   44    45     1     0     0
SMALL
abcg2


@<TRIPOS>ATOM
      1 CA           6.0500     6.3330    16.5200 c3         1 WIC       0.029300
      2 C            5.5900     5.7120    15.1750 c          1 WIC       0.697000
      3 OT1          5.4530     4.4700    15.1100 o          1 WIC      -0.713000
      4 OT2          5.4210     6.5440    14.2480 o          1 WIC      -0.713000
      5 CG           4.6520     5.3510    18.2220 ca         1 WIC       0.185100
      6 CD1          4.6070     4.6640    19.4390 ca         1 WIC      -0.175000
      7 CD2          3.4760     5.8940    17.7070 ca         1 WIC      -0.175000
      8 CE1          3.4100     4.5220    20.1210 ca         1 WIC      -0.080500
      9 CE2          2.2810     5.7420    18.4110 ca         1 WIC      -0.080500
     10 CZ           2.2180     5.0560    19.6200 ca         1 WIC      -0.149300
     11 CH           0.9170     4.8710    20.3550 c3         1 WIC      -0.027800
     12 C13          7.5300     6.7170    16.4750 c3         1 WIC      -0.063400
     13 C14          7.9380     7.7880    17.4920 c3         1 WIC      -0.069400
     14 C15          7.8270     7.3530    18.9520 c3         1 WIC      -0.116400
     15 C16          8.0840     8.4950    19.9200 c3         1 WIC       0.161600
     16 O17          7.7850     8.1170    21.2770 os         1 WIC      -0.363100
     17 C25          6.4860     7.9270    21.6350 ca         1 WIC       0.148100
     18 C26          6.2760     7.3160    22.8740 ca         1 WIC      -0.159500
     19 C27          4.9900     7.0880    23.3400 ca         1 WIC      -0.064000
     20 C28          3.9060     7.4690    22.5590 ca         1 WIC       0.089000
     21 CL24         2.2780     7.1740    23.1410 cl         1 WIC      -0.232000
     22 C29          4.0960     8.0750    21.3280 ca         1 WIC      -0.064000
     23 C30          5.3860     8.3060    20.8630 ca         1 WIC      -0.159500
     24 OB           5.8740     5.4460    17.6340 os         1 WIC      -0.346100
     25 HA1          5.4560     7.2350    16.6890 h1         1 WIC       0.026700
     26 HD11         5.5270     4.2580    19.8430 ha         1 WIC       0.127500
     27 HD21         3.4710     6.4260    16.7670 ha         1 WIC       0.127500
     28 HE11         3.4020     3.9960    21.0690 ha         1 WIC       0.094000
     29 HE21         1.3750     6.1700    17.9960 ha         1 WIC       0.094000
     30 HH2          0.5560     3.8420    20.2680 hc         1 WIC       0.027033
     31 HH1          1.0300     5.0870    21.4180 hc         1 WIC       0.027033
     32 HH3          0.1430     5.5280    19.9540 hc         1 WIC       0.027033
     33 H132         8.1250     5.8090    16.6130 hc         1 WIC       0.059700
     34 H131         7.7420     7.0920    15.4730 hc         1 WIC       0.059700
     35 H141         8.9660     8.1010    17.2820 hc         1 WIC       0.023700
     36 H142         7.3070     8.6700    17.3340 hc         1 WIC       0.023700
     37 H152         6.8310     6.9570    19.1370 hc         1 WIC       0.064700
     38 H151         8.5290     6.5400    19.1580 hc         1 WIC       0.064700
     39 H161         9.1360     8.7750    19.9410 h1         1 WIC       0.045700
     40 H162         7.5060     9.3830    19.6480 h1         1 WIC       0.045700
     41 H261         7.1320     7.0190    23.4650 ha         1 WIC       0.126500
     42 H271         4.8340     6.6140    24.2990 ha         1 WIC       0.126500
     43 H291         3.2460     8.3560    20.7210 ha         1 WIC       0.126500
     44 H301         5.5110     8.7710    19.8970 ha         1 WIC       0.126500
@<TRIPOS>BOND
     1     1     2 1   
     2     1    12 1   
     3     1    24 1   
     4     1    25 1   
     5     2     3 1   
     6     2     4 1   
     7     5     6 ar  
     8     5     7 ar  
     9     5    24 1   
    10     6     8 ar  
    11     6    26 1   
    12     7     9 ar  
    13     7    27 1   
    14     8    10 ar  
    15     8    28 1   
    16     9    10 ar  
    17     9    29 1   
    18    10    11 1   
    19    11    30 1   
    20    11    31 1   
    21    11    32 1   
    22    12    13 1   
    23    12    33 1   
    24    12    34 1   
    25    13    14 1   
    26    13    35 1   
    27    13    36 1   
    28    14    15 1   
    29    14    37 1   
    30    14    38 1   
    31    15    16 1   
    32    15    39 1   
    33    15    40 1   
    34    16    17 1   
    35    17    18 ar  
    36    17    23 ar  
    37    18    19 ar  
    38    18    41 1   
    39    19    20 ar  
    40    19    42 1   
    41    20    21 1   
    42    20    22 ar  
    43    22    23 ar  
    44    22    43 1   
    45    23    44 1   
@<TRIPOS>SUBSTRUCTURE
     1 WIC         1 TEMP              0 ****  ****    0 ROOT
