@<TRIPOS>MOLECULE
WIF
   31    32     1     0     0
SMALL
abcg2


@<TRIPOS>ATOM
      1 C11          5.1790     6.6170    19.1390 ca         1 WIF      -0.280500
      2 O12          5.5460     5.0300    17.0870 o          1 WIF      -0.522000
      3 C15          4.3400     6.3730    20.2200 ca         1 WIF      -0.024000
      4 C16          6.7760     7.6070    20.6440 ca         1 WIF      -0.111000
      5 C18          4.6740     6.7340    21.5230 ca         1 WIF      -0.072300
      6 C19          5.9110     7.3560    21.7010 ca         1 WIF       0.169000
      7 C20          3.7350     6.4590    22.6570 c3         1 WIF      -0.052800
      8 C1           2.0100     6.1530    17.9450 cc         1 WIF       0.303000
      9 C2           1.0330     5.6610    18.7950 cd         1 WIF      -0.365600
     10 N3           3.1900     5.4480    17.6290 nu         1 WIF      -0.896100
     11 C4           1.7060     7.4550    17.4570 cc         1 WIF      -0.149000
     12 S5          -0.2360     6.8180    19.0080 ss         1 WIF       0.317000
     13 C6           0.9820     4.4110    19.5740 c          1 WIF       0.626700
     14 S7           4.6940     6.1150    17.4970 sy         1 WIF       1.200600
     15 C8           0.5230     7.9250    17.9490 cd         1 WIF      -0.225000
     16 N9           1.5520     3.3200    18.9910 nt         1 WIF      -0.591000
     17 O10          0.4920     4.3770    20.7010 o          1 WIF      -0.589100
     18 O13          4.5940     7.2920    16.6770 o          1 WIF      -0.522000
     19 C14          6.4110     7.2380    19.3600 ca         1 WIF       0.212000
     20 CL17         7.5330     7.5520    18.0690 cl         1 WIF      -0.159000
     21 CL21         6.4130     7.8400    23.2980 cl         1 WIF      -0.186000
     22 H27          3.3890     5.8910    20.0630 ha         1 WIF       0.127000
     23 H28          7.7300     8.0830    20.8190 ha         1 WIF       0.149000
     24 H29          4.2020     5.8090    23.4000 hc         1 WIF       0.058700
     25 H31          3.4590     7.3840    23.1670 hc         1 WIF       0.058700
     26 H30          2.8280     5.9780    22.2930 hc         1 WIF       0.058700
     27 H22          3.2410     4.4960    17.9770 hn         1 WIF       0.509000
     28 H23          2.3380     8.0040    16.7780 ha         1 WIF       0.177000
     29 H24          0.0500     8.8670    17.7240 h4         1 WIF       0.161000
     30 H25          1.4870     2.4530    19.5060 hn         1 WIF       0.309500
     31 H26          1.5330     3.2270    17.9860 hn         1 WIF       0.309500
@<TRIPOS>BOND
     1     1     3 ar  
     2     1    14 1   
     3     1    19 ar  
     4     2    14 2   
     5     3     5 ar  
     6     3    22 1   
     7     4     6 ar  
     8     4    19 ar  
     9     4    23 1   
    10     5     6 ar  
    11     5     7 1   
    12     6    21 1   
    13     7    24 1   
    14     7    25 1   
    15     7    26 1   
    16     8     9 2   
    17     8    10 1   
    18     8    11 1   
    19     9    12 1   
    20     9    13 1   
    21    10    14 1   
    22    10    27 1   
    23    11    15 2   
    24    11    28 1   
    25    12    15 1   
    26    13    16 1   
    27    13    17 2   
    28    14    18 2   
    29    15    29 1   
    30    16    30 1   
    31    16    31 1   
    32    19    20 1   
@<TRIPOS>SUBSTRUCTURE
     1 WIF         1 TEMP              0 ****  ****    0 ROOT
