@<TRIPOS>MOLECULE
WIF
   31    32     1     0     0
SMALL
No Charge or Current Charge


@<TRIPOS>ATOM
      1 C11          5.1740     6.5030    19.1670 ca         1 WIF      -0.280500
      2 O12          5.3820     4.2310    17.7930 o          1 WIF      -0.522000
      3 C15          4.5640     6.2180    20.4120 ca         1 WIF      -0.024000
      4 C16          6.4700     8.2620    20.2460 ca         1 WIF      -0.111000
      5 C18          4.8820     6.9650    21.5620 ca         1 WIF      -0.072300
      6 C19          5.8380     7.9960    21.4680 ca         1 WIF       0.169000
      7 C20          4.1910     6.6500    22.8860 c3         1 WIF      -0.052800
      8 C1           2.0600     5.9040    18.3220 cc         1 WIF       0.303000
      9 C2           0.8310     5.4840    18.7670 cd         1 WIF      -0.365600
     10 N3           3.0970     5.1010    17.9080 nu         1 WIF      -0.896100
     11 C4           2.1760     7.3220    18.3290 cc         1 WIF      -0.149000
     12 S5          -0.1320     6.8300    19.3950 ss         1 WIF       0.317000
     13 C6           0.2550     4.1300    18.6970 c          1 WIF       0.626700
     14 S7           4.7140     5.5310    17.7200 sy         1 WIF       1.200600
     15 C8           1.0800     7.9780    18.8240 cd         1 WIF      -0.225000
     16 N9           0.9090     3.2270    17.9440 nt         1 WIF      -0.591000
     17 O10         -0.7860     3.8190    19.2470 o          1 WIF      -0.589100
     18 O13          4.7300     6.3410    16.4990 o          1 WIF      -0.522000
     19 C14          6.1510     7.5220    19.0980 ca         1 WIF       0.212000
     20 Cl17         7.0490     7.8960    17.6260 cl         1 WIF      -0.159000
     21 Cl21         6.2780     8.9610    22.8780 cl         1 WIF      -0.186000
     22 H27          3.8310     5.4180    20.4920 ha         1 WIF       0.127000
     23 H28          7.2200     9.0450    20.1890 ha         1 WIF       0.149000
     24 H29          4.9200     6.3560    23.6500 hc         1 WIF       0.058700
     25 H31          3.6420     7.5220    23.2610 hc         1 WIF       0.058700
     26 H30          3.4720     5.8290    22.7870 hc         1 WIF       0.058700
     27 H22          3.1480     4.2030    18.3680 hn         1 WIF       0.509000
     28 H23          3.0510     7.8480    17.9650 ha         1 WIF       0.177000
     29 H24          0.9190     9.0440    18.9320 h4         1 WIF       0.161000
     30 H25          0.5230     2.3010    17.8400 hn         1 WIF       0.309500
     31 H26          1.6740     3.5360    17.3630 hn         1 WIF       0.309500
@<TRIPOS>BOND
     1     1     3 ar  
     2     1    14 1   
     3     1    19 ar  
     4     2    14 2   
     5     3     5 ar  
     6     3    22 1   
     7     4     6 ar  
     8     4    19 ar  
     9     4    23 1   
    10     5     6 ar  
    11     5     7 1   
    12     6    21 1   
    13     7    24 1   
    14     7    25 1   
    15     7    26 1   
    16     8     9 2   
    17     8    10 1   
    18     8    11 1   
    19     9    12 1   
    20     9    13 1   
    21    10    14 1   
    22    10    27 1   
    23    11    15 2   
    24    11    28 1   
    25    12    15 1   
    26    13    16 1   
    27    13    17 2   
    28    14    18 2   
    29    15    29 1   
    30    16    30 1   
    31    16    31 1   
    32    19    20 1   
@<TRIPOS>SUBSTRUCTURE
     1 WIF         1 TEMP              0 ****  ****    0 ROOT
