@<TRIPOS>MOLECULE
WIH
   21    22     1     0     0
SMALL
abcg2


@<TRIPOS>ATOM
      1 C4         112.0780    43.5720    24.3270 ca         1 WIH      -0.176000
      2 C7         111.7010    45.2390    26.5290 ca         1 WIH      -0.035000
      3 C6         111.1450    43.9510    26.5320 ca         1 WIH      -0.192500
      4 C9         110.3730    43.5060    27.6820 cc         1 WIH       0.480000
      5 C8         112.4300    45.6870    25.4470 ca         1 WIH      -0.176000
      6 C1         113.5780    44.5840    22.1580 c3         1 WIH       0.147900
      7 C3         112.6240    44.8580    24.3340 ca         1 WIH       0.165100
      8 C5         111.3460    43.1320    25.4200 ca         1 WIH      -0.035000
      9 N10        109.8460    42.2820    27.8720 na         1 WIH      -0.228700
     10 N11        109.2010    42.2500    29.0480 nc         1 WIH      -0.202800
     11 N12        109.3320    43.4240    29.5600 nd         1 WIH      -0.039000
     12 N13        110.0500    44.2310    28.7480 nd         1 WIH      -0.397000
     13 HC4        112.2130    42.9150    23.4820 ha         1 WIH       0.130500
     14 HC7        111.5570    45.8850    27.3830 ha         1 WIH       0.124500
     15 HC8        112.8610    46.6790    25.4420 ha         1 WIH       0.130500
     16 HC1A       114.1670    45.2030    21.4870 h1         1 WIH       0.046367
     17 HC1C       114.1360    43.6810    22.4130 h1         1 WIH       0.046367
     18 HC1B       112.6360    44.3120    21.6780 h1         1 WIH       0.046367
     19 HC5        110.9280    42.1340    25.3860 ha         1 WIH       0.124500
     20 H1         109.8850    41.4560    27.2920 hn         1 WIH       0.383000
     21 O2         113.3460    45.3840    23.3200 os         1 WIH      -0.342100
@<TRIPOS>BOND
     1     1     7 ar  
     2     1     8 ar  
     3     1    13 1   
     4     2     3 ar  
     5     2     5 ar  
     6     2    14 1   
     7     3     4 1   
     8     3     8 ar  
     9     4     9 1   
    10     4    12 2   
    11     5     7 ar  
    12     5    15 1   
    13     6    16 1   
    14     6    17 1   
    15     6    18 1   
    16     6    21 1   
    17     7    21 1   
    18     8    19 1   
    19     9    10 1   
    20     9    20 1   
    21    10    11 2   
    22    11    12 1   
@<TRIPOS>SUBSTRUCTURE
     1 WIH         1 TEMP              0 ****  ****    0 ROOT
