@<TRIPOS>MOLECULE
WIH
   21    22     1     0     0
SMALL
No Charge or Current Charge


@<TRIPOS>ATOM
      1 C4         112.0830    43.5750    24.3430 ca         1 WIH      -0.176000
      2 C7         111.6800    45.2660    26.5480 ca         1 WIH      -0.035000
      3 C6         111.1340    43.9630    26.5680 ca         1 WIH      -0.192500
      4 C9         110.3630    43.5020    27.7320 cc         1 WIH       0.480000
      5 C8         112.4170    45.7140    25.4400 ca         1 WIH      -0.176000
      6 C1         113.6240    44.5970    22.0950 c3         1 WIH       0.147900
      7 C3         112.6230    44.8770    24.3350 ca         1 WIH       0.165100
      8 C5         111.3440    43.1230    25.4510 ca         1 WIH      -0.035000
      9 N10        109.7820    42.2770    27.8860 na         1 WIH      -0.228700
     10 N11        109.1510    42.1950    29.0840 nc         1 WIH      -0.202800
     11 N12        109.3540    43.3600    29.6380 nd         1 WIH      -0.039000
     12 N13        110.0980    44.1860    28.8280 nd         1 WIH      -0.397000
     13 HC4        112.2240    42.9010    23.5030 ha         1 WIH       0.130500
     14 HC7        111.5350    45.9380    27.3930 ha         1 WIH       0.124500
     15 HC8        112.8320    46.7190    25.4380 ha         1 WIH       0.130500
     16 HC1A       114.2200    45.1800    21.3830 h1         1 WIH       0.046367
     17 HC1C       114.1880    43.6890    22.3460 h1         1 WIH       0.046367
     18 HC1B       112.6900    44.3060    21.5990 h1         1 WIH       0.046367
     19 HC5        110.9390    42.1130    25.4290 ha         1 WIH       0.124500
     20 H1         109.7950    41.5100    27.2270 hn         1 WIH       0.383000
     21 O2         113.3560    45.3750    23.2760 os         1 WIH      -0.342100
@<TRIPOS>BOND
     1     1     7 ar  
     2     1     8 ar  
     3     1    13 1   
     4     2     3 ar  
     5     2     5 ar  
     6     2    14 1   
     7     3     4 1   
     8     3     8 ar  
     9     4     9 1   
    10     4    12 2   
    11     5     7 ar  
    12     5    15 1   
    13     6    16 1   
    14     6    17 1   
    15     6    18 1   
    16     6    21 1   
    17     7    21 1   
    18     8    19 1   
    19     9    10 1   
    20     9    20 1   
    21    10    11 2   
    22    11    12 1   
@<TRIPOS>SUBSTRUCTURE
     1 WIH         1 TEMP              0 ****  ****    0 ROOT
