@<TRIPOS>MOLECULE
WII
   53    56     1     0     0
SMALL
No Charge or Current Charge


@<TRIPOS>ATOM
      1 C01         36.5890    -4.3080    10.5610 cc         1 WII       0.030600
      2 C02         36.7490    -3.0010    11.0100 cd         1 WII      -0.308500
      3 C04         35.1830    -2.6480     9.2850 cc         1 WII      -0.299300
      4 C06         35.1450     0.2190     9.3550 c6         1 WII      -0.070400
      5 C07         33.8660    -0.5330     8.9330 c6         1 WII      -0.070400
      6 C11         37.1590    -6.7470    10.7440 c          1 WII       0.635300
      7 O12         36.4690    -7.1110     9.8070 o          1 WII      -0.555100
      8 C13         37.9740   -10.0430    10.3230 c          1 WII       0.726200
      9 O14         37.3960    -9.6900     9.3070 o          1 WII      -0.700500
     10 C16         37.6220    -2.6590    12.1340 cd         1 WII       0.680500
     11 C19         38.9990    -2.8060    13.7350 cc         1 WII       0.496300
     12 C21         40.0010    -3.2130    14.8140 c3         1 WII      -0.075300
     13 C22         41.3150    -2.4050    14.6320 c3         1 WII      -0.085767
     14 C23         39.4040    -2.9050    16.2140 c3         1 WII      -0.085767
     15 C24         40.3450    -4.7240    14.7490 c3         1 WII      -0.085767
     16 C25         37.9790    -7.7080    11.5770 ce         1 WII      -0.294400
     17 C26         38.2960    -9.0390    11.4210 cf         1 WII      -0.015400
     18 C27         39.1160    -9.4650    12.6570 c5         1 WII      -0.065200
     19 C28         38.7340    -8.4150    13.7250 c5         1 WII      -0.083400
     20 C03         35.9550    -2.0490    10.2570 cd         1 WII      -0.027300
     21 S05         35.4430    -4.3790     9.2140 ss         1 WII       0.320000
     22 C08         34.2260    -1.9230     8.3660 c6         1 WII       0.011900
     23 C09         35.9020    -0.5370    10.4770 c6         1 WII      -0.012100
     24 N10         37.2360    -5.4130    11.1140 ns         1 WII      -0.384100
     25 O15         38.3540   -11.1970    10.4800 o          1 WII      -0.700500
     26 N17         37.7340    -1.4190    12.5890 nc         1 WII      -0.417300
     27 O18         38.6440    -1.4990    13.6520 os         1 WII      -0.106700
     28 N20         38.4010    -3.5630    12.8340 nd         1 WII      -0.754000
     29 C29         38.5750    -7.1350    12.8670 c5         1 WII      -0.028200
     30 H30         35.8030     0.3360     8.4820 hc         1 WII       0.033200
     31 H31         34.8950     1.2340     9.6930 hc         1 WII       0.033200
     32 H32         33.1980    -0.6430     9.7980 hc         1 WII       0.034200
     33 H33         33.3160     0.0470     8.1800 hc         1 WII       0.034200
     34 H40         42.0590    -2.6840    15.3890 hc         1 WII       0.045144
     35 H41         41.7520    -2.5910    13.6430 hc         1 WII       0.045144
     36 H42         41.1340    -1.3270    14.7230 hc         1 WII       0.045144
     37 H44         40.0990    -3.1940    17.0120 hc         1 WII       0.045144
     38 H45         39.1890    -1.8350    16.3270 hc         1 WII       0.045144
     39 H43         38.4670    -3.4540    16.3670 hc         1 WII       0.045144
     40 H47         41.0820    -4.9940    15.5170 hc         1 WII       0.045144
     41 H46         39.4510    -5.3350    14.9190 hc         1 WII       0.045144
     42 H48         40.7700    -4.9860    13.7730 hc         1 WII       0.045144
     43 H50         38.8770   -10.4810    12.9940 hc         1 WII       0.059700
     44 H49         40.1890    -9.4410    12.4340 hc         1 WII       0.059700
     45 H52         37.7870    -8.6790    14.2100 hc         1 WII       0.027700
     46 H51         39.4910    -8.3100    14.5100 hc         1 WII       0.027700
     47 H34         34.6790    -1.8050     7.3720 hc         1 WII       0.042200
     48 H35         33.3070    -2.5070     8.2160 hc         1 WII       0.042200
     49 H37         35.4160    -0.3230    11.4380 hc         1 WII       0.054200
     50 H36         36.9130    -0.1130    10.5310 hc         1 WII       0.054200
     51 H38         37.8580    -5.2290    11.8950 hn         1 WII       0.360500
     52 H53         39.5390    -6.6560    12.6670 hc         1 WII       0.026700
     53 H54         37.9240    -6.4160    13.3770 hc         1 WII       0.026700
@<TRIPOS>BOND
     1     1     2 2   
     2     1    21 1   
     3     1    24 1   
     4     2    10 1   
     5     2    20 1   
     6     3    20 2   
     7     3    21 1   
     8     3    22 1   
     9     4     5 1   
    10     4    23 1   
    11     4    30 1   
    12     4    31 1   
    13     5    22 1   
    14     5    32 1   
    15     5    33 1   
    16     6     7 2   
    17     6    16 1   
    18     6    24 1   
    19     8     9 1   
    20     8    17 1   
    21     8    25 1   
    22    10    26 2   
    23    10    28 1   
    24    11    12 1   
    25    11    27 1   
    26    11    28 2   
    27    12    13 1   
    28    12    14 1   
    29    12    15 1   
    30    13    34 1   
    31    13    35 1   
    32    13    36 1   
    33    14    37 1   
    34    14    38 1   
    35    14    39 1   
    36    15    40 1   
    37    15    41 1   
    38    15    42 1   
    39    16    17 2   
    40    16    29 1   
    41    17    18 1   
    42    18    19 1   
    43    18    43 1   
    44    18    44 1   
    45    19    29 1   
    46    19    45 1   
    47    19    46 1   
    48    20    23 1   
    49    22    47 1   
    50    22    48 1   
    51    23    49 1   
    52    23    50 1   
    53    24    51 1   
    54    26    27 1   
    55    29    52 1   
    56    29    53 1   
@<TRIPOS>SUBSTRUCTURE
     1 WII         1 TEMP              0 ****  ****    0 ROOT
