@<TRIPOS>MOLECULE
WII
   53    56     1     0     0
SMALL
abcg2


@<TRIPOS>ATOM
      1 C01         36.6890    -4.2930    10.7380 cc         1 WII       0.030600
      2 C02         36.7830    -2.9760    11.1470 cd         1 WII      -0.308500
      3 C04         35.2760    -2.7720     9.3910 cc         1 WII      -0.299300
      4 C06         35.1230     0.0210     9.3140 c6         1 WII      -0.070400
      5 C07         33.9030    -0.7830     8.8850 c6         1 WII      -0.070400
      6 C11         37.2290    -6.6570    10.8640 c          1 WII       0.635300
      7 O12         36.5550    -6.9290     9.8780 o          1 WII      -0.555100
      8 C13         37.6460    -9.6630    10.0770 c          1 WII       0.726200
      9 O14         38.4410    -9.6650     9.1230 o          1 WII      -0.700500
     10 C16         37.6130    -2.5610    12.2590 cd         1 WII       0.680500
     11 C19         38.9830    -2.6780    13.8400 cc         1 WII       0.496300
     12 C21         39.9920    -3.0330    14.8880 c3         1 WII      -0.075300
     13 C22         41.2990    -2.2870    14.5830 c3         1 WII      -0.085767
     14 C23         39.4640    -2.6110    16.2650 c3         1 WII      -0.085767
     15 C24         40.2360    -4.5390    14.8690 c3         1 WII      -0.085767
     16 C25         37.9650    -7.6380    11.6600 ce         1 WII      -0.294400
     17 C26         38.1210    -8.9240    11.3040 cf         1 WII      -0.015400
     18 C27         38.9720    -9.6460    12.3100 c5         1 WII      -0.065200
     19 C28         38.9870    -8.7080    13.5220 c5         1 WII      -0.083400
     20 C03         35.9620    -2.1010    10.3500 cd         1 WII      -0.027300
     21 S05         35.6120    -4.4690     9.4020 ss         1 WII       0.320000
     22 C08         34.3170    -2.1740     8.4120 c6         1 WII       0.011900
     23 C09         35.8320    -0.6140    10.5080 c6         1 WII      -0.012100
     24 N10         37.3300    -5.3660    11.3040 ns         1 WII      -0.384100
     25 O15         36.5570   -10.2500    10.1890 o          1 WII      -0.700500
     26 N17         37.6830    -1.3410    12.7130 nc         1 WII      -0.417300
     27 O18         38.5820    -1.4210    13.7430 os         1 WII      -0.106700
     28 N20         38.4190    -3.4300    12.9540 nd         1 WII      -0.754000
     29 C29         38.6960    -7.3170    12.9440 c5         1 WII      -0.028200
     30 H30         35.8190     0.0910     8.4720 hc         1 WII       0.033200
     31 H31         34.8370     1.0430     9.5670 hc         1 WII       0.033200
     32 H32         33.2090    -0.8760     9.7260 hc         1 WII       0.034200
     33 H33         33.3660    -0.2690     8.0860 hc         1 WII       0.034200
     34 H40         42.0490    -2.5620    15.3250 hc         1 WII       0.045144
     35 H41         41.6890    -2.5510    13.5990 hc         1 WII       0.045144
     36 H42         41.1700    -1.2050    14.6230 hc         1 WII       0.045144
     37 H44         40.1900    -2.8990    17.0270 hc         1 WII       0.045144
     38 H45         39.3170    -1.5340    16.3380 hc         1 WII       0.045144
     39 H43         38.5200    -3.1050    16.4990 hc         1 WII       0.045144
     40 H47         40.9900    -4.7870    15.6170 hc         1 WII       0.045144
     41 H46         39.3300    -5.0940    15.1110 hc         1 WII       0.045144
     42 H48         40.5970    -4.8800    13.9000 hc         1 WII       0.045144
     43 H50         38.5860   -10.6420    12.5420 hc         1 WII       0.059700
     44 H49         39.9740    -9.7930    11.8920 hc         1 WII       0.059700
     45 H52         38.1860    -8.9880    14.2080 hc         1 WII       0.027700
     46 H51         39.9220    -8.7460    14.0800 hc         1 WII       0.027700
     47 H34         34.7810    -2.1060     7.4220 hc         1 WII       0.042200
     48 H35         33.4380    -2.8120     8.2950 hc         1 WII       0.042200
     49 H37         35.2860    -0.3920    11.4300 hc         1 WII       0.054200
     50 H36         36.8170    -0.1610    10.6350 hc         1 WII       0.054200
     51 H38         37.9310    -5.1340    12.0910 hn         1 WII       0.360500
     52 H53         39.6220    -6.7690    12.7380 hc         1 WII       0.026700
     53 H54         38.1160    -6.7060    13.6390 hc         1 WII       0.026700
@<TRIPOS>BOND
     1     1     2 2   
     2     1    21 1   
     3     1    24 1   
     4     2    10 1   
     5     2    20 1   
     6     3    20 2   
     7     3    21 1   
     8     3    22 1   
     9     4     5 1   
    10     4    23 1   
    11     4    30 1   
    12     4    31 1   
    13     5    22 1   
    14     5    32 1   
    15     5    33 1   
    16     6     7 2   
    17     6    16 1   
    18     6    24 1   
    19     8     9 1   
    20     8    17 1   
    21     8    25 1   
    22    10    26 2   
    23    10    28 1   
    24    11    12 1   
    25    11    27 1   
    26    11    28 2   
    27    12    13 1   
    28    12    14 1   
    29    12    15 1   
    30    13    34 1   
    31    13    35 1   
    32    13    36 1   
    33    14    37 1   
    34    14    38 1   
    35    14    39 1   
    36    15    40 1   
    37    15    41 1   
    38    15    42 1   
    39    16    17 2   
    40    16    29 1   
    41    17    18 1   
    42    18    19 1   
    43    18    43 1   
    44    18    44 1   
    45    19    29 1   
    46    19    45 1   
    47    19    46 1   
    48    20    23 1   
    49    22    47 1   
    50    22    48 1   
    51    23    49 1   
    52    23    50 1   
    53    24    51 1   
    54    26    27 1   
    55    29    52 1   
    56    29    53 1   
@<TRIPOS>SUBSTRUCTURE
     1 WII         1 TEMP              0 ****  ****    0 ROOT
