@<TRIPOS>MOLECULE
WIJ
   35    37     1     0     0
SMALL
abcg2


@<TRIPOS>ATOM
      1 N1          -9.3770    18.8170     8.4140 ns         1 WIJ      -0.169000
      2 C7          -9.8700    18.0350     7.4100 c          1 WIJ       0.631300
      3 C8          -8.8730    17.5470     6.4270 cc         1 WIJ      -0.134600
      4 C9          -9.1040    16.5510     5.5300 cd         1 WIJ      -0.080200
      5 O1         -11.0560    17.7530     7.2990 o          1 WIJ      -0.541100
      6 C1         -11.3050    20.1330     9.2230 ca         1 WIJ      -0.136600
      7 C5          -9.7410    19.1220    10.7700 ca         1 WIJ      -0.149000
      8 C6         -10.1570    19.3650     9.4610 ca         1 WIJ      -0.019000
      9 C4         -10.4560    19.6290    11.8440 ca         1 WIJ      -0.076000
     10 C3         -11.6160    20.3640    11.6190 ca         1 WIJ      -0.124000
     11 O3          -7.4750    13.5990     1.6290 o          1 WIJ      -0.392000
     12 C2         -12.0340    20.6010    10.3180 ca         1 WIJ      -0.050000
     13 N          -10.8870    20.9570     6.9810 nt         1 WIJ      -0.604000
     14 O          -13.0110    20.5170     7.6090 o          1 WIJ      -0.594100
     15 C10         -7.9790    16.2880     4.6900 ca         1 WIJ      -0.107800
     16 C11         -6.8820    17.1350     4.9880 ca         1 WIJ      -0.123000
     17 C12         -5.6780    17.0560     4.2830 ca         1 WIJ      -0.091000
     18 C13         -5.5670    16.1230     3.2750 ca         1 WIJ      -0.037000
     19 C14         -6.6550    15.2870     2.9820 ca         1 WIJ      -0.178200
     20 C15         -7.8540    15.3470     3.6650 ca         1 WIJ       0.015000
     21 O2          -5.4400    14.2450     1.3170 o          1 WIJ      -0.392000
     22 S           -7.2630    18.2270     6.2740 ss         1 WIJ       0.082400
     23 H1          -8.3810    18.8060     8.5770 hn         1 WIJ       0.153000
     24 H2         -10.0430    16.0200     5.4710 ha         1 WIJ       0.236000
     25 H3          -8.8560    18.5190    10.9330 ha         1 WIJ       0.116000
     26 H4         -10.1150    19.4380    12.8530 ha         1 WIJ       0.119000
     27 H5         -12.1880    20.7530    12.4510 ha         1 WIJ       0.123000
     28 H6         -12.9290    21.1790    10.1300 ha         1 WIJ       0.138000
     29 H7         -11.1800    21.2120     6.0510 hn         1 WIJ       0.316000
     30 H8          -9.9040    20.9640     7.1930 hn         1 WIJ       0.316000
     31 H9          -4.8500    17.7100     4.5200 ha         1 WIJ       0.138000
     32 H10         -4.6540    16.0300     2.7070 ha         1 WIJ       0.157000
     33 H11         -8.6700    14.6870     3.4110 ha         1 WIJ       0.161000
     34 N2          -6.5140    14.3100     1.9020 no         1 WIJ       0.674200
     35 C          -11.8070    20.5280     7.8630 c          1 WIJ       0.623700
@<TRIPOS>BOND
     1     1     2 1   
     2     1     8 1   
     3     1    23 1   
     4     2     3 1   
     5     2     5 2   
     6     3     4 2   
     7     3    22 1   
     8     4    15 1   
     9     4    24 1   
    10     6     8 ar  
    11     6    12 ar  
    12     6    35 1   
    13     7     8 ar  
    14     7     9 ar  
    15     7    25 1   
    16     9    10 ar  
    17     9    26 1   
    18    10    12 ar  
    19    10    27 1   
    20    11    34 1   
    21    12    28 1   
    22    13    29 1   
    23    13    30 1   
    24    13    35 1   
    25    14    35 2   
    26    15    16 ar  
    27    15    20 ar  
    28    16    17 ar  
    29    16    22 1   
    30    17    18 ar  
    31    17    31 1   
    32    18    19 ar  
    33    18    32 1   
    34    19    20 ar  
    35    19    34 1   
    36    20    33 1   
    37    21    34 1   
@<TRIPOS>SUBSTRUCTURE
     1 WIJ         1 TEMP              0 ****  ****    0 ROOT
