@<TRIPOS>MOLECULE
WIJ
   35    37     1     0     0
SMALL
No Charge or Current Charge


@<TRIPOS>ATOM
      1 N1          -9.4630    18.8080     8.3960 ns         1 WIJ      -0.169000
      2 C7          -9.9250    17.9260     7.4310 c          1 WIJ       0.631300
      3 C8          -8.8760    17.4760     6.4880 cc         1 WIJ      -0.134600
      4 C9          -9.1000    16.5950     5.4450 cd         1 WIJ      -0.080200
      5 O1         -11.0910    17.5490     7.3740 o          1 WIJ      -0.541100
      6 C1         -11.3770    20.1810     9.2610 ca         1 WIJ      -0.136600
      7 C5          -9.6540    19.2700    10.7450 ca         1 WIJ      -0.149000
      8 C6         -10.1700    19.4440     9.4470 ca         1 WIJ      -0.019000
      9 C4         -10.3350    19.7700    11.8640 ca         1 WIJ      -0.076000
     10 C3         -11.5490    20.4490    11.6930 ca         1 WIJ      -0.124000
     11 O3          -7.4820    13.8020     1.3070 o          1 WIJ      -0.392000
     12 C2         -12.0640    20.6520    10.4040 ca         1 WIJ      -0.050000
     13 N          -11.1090    20.7380     6.8750 nt         1 WIJ      -0.604000
     14 O          -13.1560    20.6670     7.7220 o          1 WIJ      -0.594100
     15 C10         -7.9300    16.3010     4.6510 ca         1 WIJ      -0.107800
     16 C11         -6.8290    16.9830     5.1250 ca         1 WIJ      -0.123000
     17 C12         -5.5800    16.8470     4.5040 ca         1 WIJ      -0.091000
     18 C13         -5.4630    16.0000     3.3830 ca         1 WIJ      -0.037000
     19 C14         -6.5950    15.2940     2.8900 ca         1 WIJ      -0.178200
     20 C15         -7.8470    15.4500     3.5370 ca         1 WIJ       0.015000
     21 O2          -5.3600    14.2860     1.1630 o          1 WIJ      -0.392000
     22 S           -7.1700    18.0060     6.5510 ss         1 WIJ       0.082400
     23 H1          -8.4670    18.9840     8.3820 hn         1 WIJ       0.153000
     24 H2         -10.0780    16.1620     5.2420 ha         1 WIJ       0.236000
     25 H3          -8.7290    18.7160    10.8920 ha         1 WIJ       0.116000
     26 H4          -9.9310    19.6180    12.8630 ha         1 WIJ       0.119000
     27 H5         -12.0850    20.8300    12.5600 ha         1 WIJ       0.123000
     28 H6         -12.9940    21.2080    10.2910 ha         1 WIJ       0.138000
     29 H7         -11.4840    20.9930     5.9740 hn         1 WIJ       0.316000
     30 H8         -10.1130    20.7050     7.0280 hn         1 WIJ       0.316000
     31 H9          -4.7130    17.3860     4.8800 ha         1 WIJ       0.138000
     32 H10         -4.4910    15.8980     2.9040 ha         1 WIJ       0.157000
     33 H11         -8.7360    14.9270     3.1900 ha         1 WIJ       0.161000
     34 N2          -6.4700    14.3960     1.7000 no         1 WIJ       0.674200
     35 C          -11.9570    20.5380     7.9080 c          1 WIJ       0.623700
@<TRIPOS>BOND
     1     1     2 1   
     2     1     8 1   
     3     1    23 1   
     4     2     3 1   
     5     2     5 2   
     6     3     4 2   
     7     3    22 1   
     8     4    15 1   
     9     4    24 1   
    10     6     8 ar  
    11     6    12 ar  
    12     6    35 1   
    13     7     8 ar  
    14     7     9 ar  
    15     7    25 1   
    16     9    10 ar  
    17     9    26 1   
    18    10    12 ar  
    19    10    27 1   
    20    11    34 1   
    21    12    28 1   
    22    13    29 1   
    23    13    30 1   
    24    13    35 1   
    25    14    35 2   
    26    15    16 ar  
    27    15    20 ar  
    28    16    17 ar  
    29    16    22 1   
    30    17    18 ar  
    31    17    31 1   
    32    18    19 ar  
    33    18    32 1   
    34    19    20 ar  
    35    19    34 1   
    36    20    33 1   
    37    21    34 1   
@<TRIPOS>SUBSTRUCTURE
     1 WIJ         1 TEMP              0 ****  ****    0 ROOT
