@<TRIPOS>MOLECULE
WIK
   30    32     1     0     0
SMALL
abcg2


@<TRIPOS>ATOM
      1 C4         107.3580    44.3950    25.5690 ca         1 WIK      -0.084500
      2 C7         107.6340    45.7000    27.9940 ca         1 WIK      -0.108500
      3 C6         108.7510    45.1810    27.3540 ca         1 WIK      -0.084500
      4 C9         110.0370    44.3320    24.0910 ca         1 WIK      -0.107000
      5 C13        110.7830    43.1790    26.0630 ca         1 WIK      -0.142500
      6 C8         109.8210    43.9860    25.4280 cp         1 WIK       0.025000
      7 C2         106.3580    45.5690    27.4410 ca         1 WIK      -0.063300
      8 C3         106.2420    44.9110    26.2160 ca         1 WIK      -0.108500
      9 C5         108.6300    44.5140    26.1330 cp         1 WIK      -0.051000
     10 C10        111.1730    43.9180    23.4080 ca         1 WIK      -0.087000
     11 C11        112.1320    43.1460    24.0550 ca         1 WIK      -0.112000
     12 C12        111.9330    42.7770    25.3770 ca         1 WIK      -0.093000
     13 C14        110.5910    42.6850    27.4310 cc         1 WIK       0.460000
     14 N15        111.5080    42.7480    28.4100 na         1 WIK      -0.225700
     15 N16        111.0250    42.1620    29.5120 nc         1 WIK      -0.204800
     16 N17        109.8420    41.7490    29.2070 nd         1 WIK      -0.044000
     17 N18        109.5370    42.0530    27.9260 nd         1 WIK      -0.367000
     18 HC4        107.2390    43.8820    24.6230 ha         1 WIK       0.111000
     19 HC7        107.7550    46.2230    28.9360 ha         1 WIK       0.113000
     20 HC6        109.7280    45.3100    27.8020 ha         1 WIK       0.111000
     21 HC9        109.3100    44.9600    23.5920 ha         1 WIK       0.124000
     22 HC1A       104.6690    45.3120    28.7470 hc         1 WIK       0.044367
     23 HC1C       105.4090    46.9090    28.8360 hc         1 WIK       0.044367
     24 HC1B       104.4000    46.4690    27.4470 hc         1 WIK       0.044367
     25 HC3        105.2640    44.8000    25.7610 ha         1 WIK       0.113000
     26 HC10       111.3140    44.2090    22.3750 ha         1 WIK       0.120000
     27 HC11       113.0230    42.8240    23.5320 ha         1 WIK       0.121000
     28 HC12       112.6580    42.1490    25.8800 ha         1 WIK       0.115000
     29 HN15       112.4280    43.1680    28.4030 hn         1 WIK       0.384000
     30 C1         105.1440    46.1000    28.1540 c3         1 WIK      -0.048800
@<TRIPOS>BOND
     1     1     8 ar  
     2     1     9 ar  
     3     1    18 1   
     4     2     3 ar  
     5     2     7 ar  
     6     2    19 1   
     7     3     9 ar  
     8     3    20 1   
     9     4     6 ar  
    10     4    10 ar  
    11     4    21 1   
    12     5     6 ar  
    13     5    12 ar  
    14     5    13 1   
    15     6     9 1   
    16     7     8 ar  
    17     7    30 1   
    18     8    25 1   
    19    10    11 ar  
    20    10    26 1   
    21    11    12 ar  
    22    11    27 1   
    23    12    28 1   
    24    13    14 1   
    25    13    17 2   
    26    14    15 1   
    27    14    29 1   
    28    15    16 2   
    29    16    17 1   
    30    22    30 1   
    31    23    30 1   
    32    24    30 1   
@<TRIPOS>SUBSTRUCTURE
     1 WIK         1 TEMP              0 ****  ****    0 ROOT
