@<TRIPOS>MOLECULE
WIK
   30    32     1     0     0
SMALL
No Charge or Current Charge


@<TRIPOS>ATOM
      1 C4         107.3310    44.3150    25.6140 ca         1 WIK      -0.084500
      2 C7         107.5660    45.8380    27.9600 ca         1 WIK      -0.108500
      3 C6         108.7160    45.3320    27.3290 ca         1 WIK      -0.084500
      4 C9         110.0540    44.4030    24.1150 ca         1 WIK      -0.107000
      5 C13        110.8160    43.2220    26.1250 ca         1 WIK      -0.142500
      6 C8         109.8390    44.0330    25.4650 cp         1 WIK       0.025000
      7 C2         106.2920    45.5840    27.4200 ca         1 WIK      -0.063300
      8 C3         106.1800    44.8200    26.2440 ca         1 WIK      -0.108500
      9 C5         108.6180    44.5530    26.1510 cp         1 WIK      -0.051000
     10 C10        111.2000    43.9980    23.4190 ca         1 WIK      -0.087000
     11 C11        112.1560    43.2060    24.0640 ca         1 WIK      -0.112000
     12 C12        111.9630    42.8170    25.3990 ca         1 WIK      -0.093000
     13 C14        110.6500    42.6930    27.4900 cc         1 WIK       0.460000
     14 N15        111.6640    42.3190    28.3260 na         1 WIK      -0.225700
     15 N16        111.1690    41.8340    29.4930 nc         1 WIK      -0.204800
     16 N17        109.8750    41.9050    29.3490 nd         1 WIK      -0.044000
     17 N18        109.5260    42.4200    28.1220 nd         1 WIK      -0.367000
     18 HC4        107.2270    43.7270    24.7050 ha         1 WIK       0.111000
     19 HC7        107.6680    46.4280    28.8670 ha         1 WIK       0.113000
     20 HC6        109.6940    45.5450    27.7540 ha         1 WIK       0.111000
     21 HC9        109.3220    45.0290    23.6100 ha         1 WIK       0.124000
     22 HC1A       104.6630    45.4130    28.8410 hc         1 WIK       0.044367
     23 HC1C       105.2560    47.0690    28.6260 hc         1 WIK       0.044367
     24 HC1B       104.2470    46.3250    27.3800 hc         1 WIK       0.044367
     25 HC3        105.2010    44.6170    25.8150 ha         1 WIK       0.113000
     26 HC10       111.3460    44.2980    22.3830 ha         1 WIK       0.120000
     27 HC11       113.0450    42.8820    23.5260 ha         1 WIK       0.121000
     28 HC12       112.7110    42.1750    25.8590 ha         1 WIK       0.115000
     29 HN15       112.6560    42.3920    28.1450 hn         1 WIK       0.384000
     30 C1         105.0470    46.1280    28.1040 c3         1 WIK      -0.048800
@<TRIPOS>BOND
     1     1     8 ar  
     2     1     9 ar  
     3     1    18 1   
     4     2     3 ar  
     5     2     7 ar  
     6     2    19 1   
     7     3     9 ar  
     8     3    20 1   
     9     4     6 ar  
    10     4    10 ar  
    11     4    21 1   
    12     5     6 ar  
    13     5    12 ar  
    14     5    13 1   
    15     6     9 1   
    16     7     8 ar  
    17     7    30 1   
    18     8    25 1   
    19    10    11 ar  
    20    10    26 1   
    21    11    12 ar  
    22    11    27 1   
    23    12    28 1   
    24    13    14 1   
    25    13    17 2   
    26    14    15 1   
    27    14    29 1   
    28    15    16 2   
    29    16    17 1   
    30    22    30 1   
    31    23    30 1   
    32    24    30 1   
@<TRIPOS>SUBSTRUCTURE
     1 WIK         1 TEMP              0 ****  ****    0 ROOT
