@<TRIPOS>MOLECULE
WIL
   38    40     1     0     0
SMALL
No Charge or Current Charge


@<TRIPOS>ATOM
      1 C10          4.5640     7.3990    16.9050 c          1 WIL       0.702600
      2 C11          6.6890     8.7580    19.7790 ca         1 WIL      -0.124000
      3 C13          4.6650     7.2570    23.1660 ca         1 WIL       0.110100
      4 C15          1.9050     4.2350    19.3090 ca         1 WIL      -0.094000
      5 C18          5.8290     8.0230    23.3130 ca         1 WIL      -0.153000
      6 C20          0.7380     4.8640    18.8450 ca         1 WIL      -0.158000
      7 C22          2.8470     6.0070    24.2800 c3         1 WIL       0.150900
      8 C23         -0.5440     8.2010    17.7780 c3         1 WIL       0.148900
      9 C1           4.3520     7.1710    19.4090 cp         1 WIL      -0.063000
     10 C2           4.8420     7.4530    20.7220 ca         1 WIL       0.016000
     11 C3           3.1050     6.3700    19.2060 cp         1 WIL       0.046000
     12 C4           5.0670     7.7160    18.2990 ca         1 WIL      -0.072600
     13 C5           6.0090     8.2380    20.8940 ca         1 WIL      -0.080000
     14 C6           4.1720     6.9750    21.8740 ca         1 WIL      -0.188000
     15 C7           1.9210     6.9880    18.7400 ca         1 WIL      -0.154000
     16 C8           3.0790     4.9840    19.4870 ca         1 WIL      -0.129000
     17 C9           6.2170     8.5030    18.4850 ca         1 WIL      -0.080000
     18 C12          6.4980     8.5160    22.1840 ca         1 WIL      -0.071000
     19 C14          0.7380     6.2390    18.5570 ca         1 WIL       0.126100
     20 O16          4.4030     8.3360    16.1350 o          1 WIL      -0.710000
     21 O17          4.4720     6.2280    16.5620 o          1 WIL      -0.710000
     22 O21         -0.4380     6.8030    18.1060 os         1 WIL      -0.367100
     23 H28          7.5820     9.3640    19.9120 ha         1 WIL       0.092000
     24 H30          1.8990     3.1700    19.5300 ha         1 WIL       0.095000
     25 H32          6.2110     8.2420    24.3070 ha         1 WIL       0.109000
     26 H33         -0.1710     4.2850    18.7070 ha         1 WIL       0.107000
     27 H36          2.5280     5.7580    25.2990 h1         1 WIL       0.036033
     28 H35          2.0290     6.5510    23.7910 h1         1 WIL       0.036033
     29 H34          3.0200     5.0680    23.7380 h1         1 WIL       0.036033
     30 H39         -1.5600     8.4360    17.4380 h1         1 WIL       0.040367
     31 H38         -0.3260     8.8250    18.6540 h1         1 WIL       0.040367
     32 H37          0.1530     8.4660    16.9730 h1         1 WIL       0.040367
     33 H24          3.2660     6.3910    21.7620 ha         1 WIL       0.121000
     34 H25          1.9470     8.0530    18.5300 ha         1 WIL       0.134000
     35 H26          3.9800     4.4930    19.8450 ha         1 WIL       0.113000
     36 H27          6.7470     8.9050    17.6250 ha         1 WIL       0.121000
     37 H29          7.3950     9.1170    22.3130 ha         1 WIL       0.100000
     38 O19          4.0440     6.8060    24.3140 os         1 WIL      -0.365100
@<TRIPOS>BOND
     1     1    12 1   
     2     1    20 1   
     3     1    21 1   
     4     2    13 ar  
     5     2    17 ar  
     6     2    23 1   
     7     3     5 ar  
     8     3    14 ar  
     9     3    38 1   
    10     4     6 ar  
    11     4    16 ar  
    12     4    24 1   
    13     5    18 ar  
    14     5    25 1   
    15     6    19 ar  
    16     6    26 1   
    17     7    27 1   
    18     7    28 1   
    19     7    29 1   
    20     7    38 1   
    21     8    22 1   
    22     8    30 1   
    23     8    31 1   
    24     8    32 1   
    25     9    10 ar  
    26     9    11 1   
    27     9    12 ar  
    28    10    13 ar  
    29    10    14 ar  
    30    11    15 ar  
    31    11    16 ar  
    32    12    17 ar  
    33    13    18 ar  
    34    14    33 1   
    35    15    19 ar  
    36    15    34 1   
    37    16    35 1   
    38    17    36 1   
    39    18    37 1   
    40    19    22 1   
@<TRIPOS>SUBSTRUCTURE
     1 WIL         1 TEMP              0 ****  ****    0 ROOT
