@<TRIPOS>MOLECULE
WIL
   38    40     1     0     0
SMALL
abcg2


@<TRIPOS>ATOM
      1 C10          4.4970     7.4750    16.9020 c          1 WIL       0.702600
      2 C11          6.6380     8.7390    19.7550 ca         1 WIL      -0.124000
      3 C13          4.6650     7.2120    23.1590 ca         1 WIL       0.110100
      4 C15          1.8800     4.2880    19.3720 ca         1 WIL      -0.094000
      5 C18          5.8560     7.9640    23.3100 ca         1 WIL      -0.153000
      6 C20          0.7400     4.8890    18.8590 ca         1 WIL      -0.158000
      7 C22          2.8990     6.0270    24.2490 c3         1 WIL       0.150900
      8 C23         -0.4200     8.1530    17.6980 c3         1 WIL       0.148900
      9 C1           4.3110     7.1890    19.4280 cp         1 WIL      -0.063000
     10 C2           4.8090     7.4410    20.7450 ca         1 WIL       0.016000
     11 C3           3.0750     6.3790    19.2450 cp         1 WIL       0.046000
     12 C4           4.9630     7.7230    18.3300 ca         1 WIL      -0.072600
     13 C5           5.9970     8.2160    20.9000 ca         1 WIL      -0.080000
     14 C6           4.1510     6.9600    21.9080 ca         1 WIL      -0.188000
     15 C7           1.9280     6.9890    18.7300 ca         1 WIL      -0.154000
     16 C8           3.0450     5.0240    19.5700 ca         1 WIL      -0.129000
     17 C9           6.1240     8.5120    18.5060 ca         1 WIL      -0.080000
     18 C12          6.4950     8.4530    22.2060 ca         1 WIL      -0.071000
     19 C14          0.7640     6.2480    18.5350 ca         1 WIL       0.126100
     20 O16          4.0720     8.4780    16.2750 o          1 WIL      -0.710000
     21 O17          4.6130     6.3060    16.4590 o          1 WIL      -0.710000
     22 O21         -0.3930     6.7660    18.0350 os         1 WIL      -0.367100
     23 H28          7.5380     9.3300    19.8830 ha         1 WIL       0.092000
     24 H30          1.8600     3.2340    19.6190 ha         1 WIL       0.095000
     25 H32          6.2350     8.1420    24.3080 ha         1 WIL       0.109000
     26 H33         -0.1710     4.3250    18.7030 ha         1 WIL       0.107000
     27 H36          2.6310     5.7890    25.2760 h1         1 WIL       0.036033
     28 H35          2.0990     6.6090    23.7850 h1         1 WIL       0.036033
     29 H34          3.0510     5.1040    23.6840 h1         1 WIL       0.036033
     30 H39         -1.4210     8.3480    17.3220 h1         1 WIL       0.040367
     31 H38         -0.2280     8.7740    18.5760 h1         1 WIL       0.040367
     32 H37          0.3150     8.3830    16.9230 h1         1 WIL       0.040367
     33 H24          3.2430     6.3910    21.7930 ha         1 WIL       0.121000
     34 H25          1.9630     8.0390    18.4830 ha         1 WIL       0.134000
     35 H26          3.9310     4.5460    19.9660 ha         1 WIL       0.113000
     36 H27          6.6110     8.9270    17.6330 ha         1 WIL       0.121000
     37 H29          7.4020     9.0360    22.3170 ha         1 WIL       0.100000
     38 O19          4.1050     6.7860    24.3240 os         1 WIL      -0.365100
@<TRIPOS>BOND
     1     1    12 1   
     2     1    20 1   
     3     1    21 1   
     4     2    13 ar  
     5     2    17 ar  
     6     2    23 1   
     7     3     5 ar  
     8     3    14 ar  
     9     3    38 1   
    10     4     6 ar  
    11     4    16 ar  
    12     4    24 1   
    13     5    18 ar  
    14     5    25 1   
    15     6    19 ar  
    16     6    26 1   
    17     7    27 1   
    18     7    28 1   
    19     7    29 1   
    20     7    38 1   
    21     8    22 1   
    22     8    30 1   
    23     8    31 1   
    24     8    32 1   
    25     9    10 ar  
    26     9    11 1   
    27     9    12 ar  
    28    10    13 ar  
    29    10    14 ar  
    30    11    15 ar  
    31    11    16 ar  
    32    12    17 ar  
    33    13    18 ar  
    34    14    33 1   
    35    15    19 ar  
    36    15    34 1   
    37    16    35 1   
    38    17    36 1   
    39    18    37 1   
    40    19    22 1   
@<TRIPOS>SUBSTRUCTURE
     1 WIL         1 TEMP              0 ****  ****    0 ROOT
