@<TRIPOS>MOLECULE
WIN
   75    79     1     0     0
SMALL
No Charge or Current Charge


@<TRIPOS>ATOM
      1 C1D          7.8750     2.4600    -0.4910 c3         1 WIN      -0.085100
      2 C2C          7.0610     1.3150     0.1570 c3         1 WIN      -0.040500
      3 C1E          7.7840     0.6970     1.3770 c3         1 WIN      -0.085100
      4 C1V          5.6190     1.7200     0.4750 c2         1 WIN      -0.008400
      5 C1B          5.4850     2.8550     1.4860 c3         1 WIN      -0.069900
      6 C1N          4.5670     1.0930    -0.1090 ce         1 WIN      -0.297200
      7 C1W          3.1200     1.3730     0.1010 c          1 WIN       0.620300
      8 O1G          2.6570     2.2310     0.8370 o          1 WIN      -0.477000
      9 O1T          2.3620     0.4780    -0.6030 os         1 WIN      -0.433100
     10 C2F          0.9120     0.5400    -0.5740 c6         1 WIN       0.093300
     11 C2K          0.3010    -0.8080    -1.0120 c5         1 WIN      -0.103700
     12 C2M         -1.2620    -0.7850    -1.0410 c5         1 WIN      -0.109000
     13 C1O         -1.4050    -2.2420    -1.6050 c5         1 WIN       0.171600
     14 O1S         -0.3410    -3.0100    -0.9650 os         1 WIN      -0.434000
     15 C2L          0.5270    -2.1170    -0.1940 c5         1 WIN       0.148000
     16 C2A          2.0230    -2.6040    -0.3430 c          1 WIN       0.615100
     17 O1J          2.4220    -3.4660    -1.1200 o          1 WIN      -0.468000
     18 O1R          2.8210    -2.0740     0.6500 os         1 WIN      -0.427100
     19 C1A          4.2090    -2.4590     0.6880 c3         1 WIN       0.153900
     20 C2E          0.0330    -2.0470     1.3140 c6         1 WIN       0.130300
     21 O1M          0.7670    -1.0750     2.0920 oh         1 WIN      -0.706000
     22 C2D         -1.5020    -1.7590     1.4230 c6         1 WIN       0.150300
     23 O1L         -2.2370    -2.9800     1.2440 oh         1 WIN      -0.644000
     24 C2J         -1.9400    -0.6150     0.4220 c6         1 WIN      -0.026700
     25 C2I         -3.5020    -0.2690     0.4020 c6         1 WIN      -0.016000
     26 C1F         -4.4620    -1.4400    -0.0310 c3         1 WIN      -0.084100
     27 C1P         -3.9520     0.2240     1.8290 c6         1 WIN      -0.170400
     28 C1X         -5.3580     0.8690     1.9080 c          1 WIN       0.555300
     29 O1H         -6.0250     0.8300     2.9380 o          1 WIN      -0.538100
     30 C2B         -5.8870     1.4930     0.6330 ce         1 WIN      -0.025100
     31 O1K         -7.1510     2.0150     0.7390 oh         1 WIN      -0.530100
     32 C1Y         -5.1720     1.5180    -0.5290 c2         1 WIN      -0.097400
     33 C1C         -5.7110     2.1600    -1.8070 c3         1 WIN      -0.050900
     34 C2H         -3.7250     0.9520    -0.5990 c6         1 WIN      -0.020500
     35 C1Q         -3.1920     0.6490    -2.0670 c6         1 WIN      -0.070400
     36 C2G         -1.6740     0.3790    -2.0400 c6         1 WIN       0.225300
     37 O1U         -1.0060     1.6330    -1.7400 os         1 WIN      -0.479100
     38 C1Z          0.3310     1.7150    -1.4220 c          1 WIN       0.659100
     39 O1I          1.0170     2.6380    -1.8390 o          1 WIN      -0.468000
     40 H1D          7.3440     2.8630    -1.3620 hc         1 WIN       0.037867
     41 H1DA         8.0530     3.2810     0.2130 hc         1 WIN       0.037867
     42 H1DB         8.8510     2.0920    -0.8320 hc         1 WIN       0.037867
     43 H2C          7.0280     0.5190    -0.5970 hc         1 WIN       0.053700
     44 H1E          7.9460     1.4380     2.1690 hc         1 WIN       0.037867
     45 H1EA         7.1950    -0.1280     1.7940 hc         1 WIN       0.037867
     46 H1EB         8.7630     0.2990     1.0820 hc         1 WIN       0.037867
     47 H1B          4.9970     3.7250     1.0320 hc         1 WIN       0.056367
     48 H1BA         4.8810     2.5420     2.3460 hc         1 WIN       0.056367
     49 H1BB         6.4460     3.1980     1.8840 hc         1 WIN       0.056367
     50 H1N          4.7500     0.2890    -0.8180 ha         1 WIN       0.199000
     51 H2F          0.5950     0.7670     0.4510 h1         1 WIN       0.108700
     52 H2K          0.7100    -0.9420    -2.0240 hc         1 WIN       0.101700
     53 H1O         -2.3670    -2.7200    -1.4010 h1         1 WIN       0.066200
     54 H1OA        -1.2430    -2.2720    -2.6910 h1         1 WIN       0.066200
     55 H1A          4.3110    -3.5400     0.8490 h1         1 WIN       0.050033
     56 H1AA         4.7130    -2.1970    -0.2500 h1         1 WIN       0.050033
     57 H1AB         4.7250    -1.9420     1.5070 h1         1 WIN       0.050033
     58 H2E          0.2130    -3.0390     1.7550 h1         1 WIN       0.054700
     59 HO1M         1.7250    -1.2460     1.9100 ho         1 WIN       0.513000
     60 H2D         -1.6970    -1.3960     2.4420 h1         1 WIN       0.028700
     61 HO1L        -2.0230    -3.5590     2.0060 ho         1 WIN       0.448000
     62 H2J         -1.4800     0.2900     0.8370 hc         1 WIN       0.058700
     63 H1F         -4.5130    -2.2400     0.7120 hc         1 WIN       0.044700
     64 H1FA        -5.4960    -1.0980    -0.1450 hc         1 WIN       0.044700
     65 H1FB        -4.1960    -1.8810    -0.9930 hc         1 WIN       0.044700
     66 H1P         -3.8770    -0.5550     2.5980 hc         1 WIN       0.076200
     67 H1PA        -3.2660     1.0240     2.1360 hc         1 WIN       0.076200
     68 H1C         -6.7070     2.5990    -1.6750 hc         1 WIN       0.050367
     69 H1CA        -5.0570     2.9720    -2.1480 hc         1 WIN       0.050367
     70 H2H         -3.1030     1.7790    -0.2270 hc         1 WIN       0.070700
     71 H1Q         -3.7230    -0.2020    -2.5110 hc         1 WIN       0.069200
     72 H1QA        -3.3560     1.5010    -2.7390 hc         1 WIN       0.069200
     73 H2G         -1.3620     0.0890    -3.0550 h1         1 WIN       0.065700
     74 H35         -7.4370     1.8560     1.6700 ho         1 WIN       0.481000
     75 H36         -5.8000     1.4260    -2.6170 hc         1 WIN       0.050367
@<TRIPOS>BOND
     1     1     2 1   
     2     1    40 1   
     3     1    41 1   
     4     1    42 1   
     5     2     3 1   
     6     2     4 1   
     7     2    43 1   
     8     3    44 1   
     9     3    45 1   
    10     3    46 1   
    11     4     5 1   
    12     4     6 2   
    13     5    47 1   
    14     5    48 1   
    15     5    49 1   
    16     6     7 1   
    17     6    50 1   
    18     7     8 2   
    19     7     9 1   
    20     9    10 1   
    21    10    11 1   
    22    10    38 1   
    23    10    51 1   
    24    11    12 1   
    25    11    15 1   
    26    11    52 1   
    27    12    13 1   
    28    12    24 1   
    29    12    36 1   
    30    13    14 1   
    31    13    53 1   
    32    13    54 1   
    33    14    15 1   
    34    15    16 1   
    35    15    20 1   
    36    16    17 2   
    37    16    18 1   
    38    18    19 1   
    39    19    55 1   
    40    19    56 1   
    41    19    57 1   
    42    20    21 1   
    43    20    22 1   
    44    20    58 1   
    45    21    59 1   
    46    22    23 1   
    47    22    24 1   
    48    22    60 1   
    49    23    61 1   
    50    24    25 1   
    51    24    62 1   
    52    25    26 1   
    53    25    27 1   
    54    25    34 1   
    55    26    63 1   
    56    26    64 1   
    57    26    65 1   
    58    27    28 1   
    59    27    66 1   
    60    27    67 1   
    61    28    29 2   
    62    28    30 1   
    63    30    31 1   
    64    30    32 2   
    65    31    74 1   
    66    32    33 1   
    67    32    34 1   
    68    33    68 1   
    69    33    69 1   
    70    33    75 1   
    71    34    35 1   
    72    34    70 1   
    73    35    36 1   
    74    35    71 1   
    75    35    72 1   
    76    36    37 1   
    77    36    73 1   
    78    37    38 1   
    79    38    39 2   
@<TRIPOS>SUBSTRUCTURE
     1 WIN         1 TEMP              0 ****  ****    0 ROOT
