@<TRIPOS>MOLECULE
WIN
   75    79     1     0     0
SMALL
abcg2


@<TRIPOS>ATOM
      1 C1D          7.6710     2.3050    -0.3380 c3         1 WIN      -0.085100
      2 C2C          6.7780     1.1670     0.1580 c3         1 WIN      -0.040500
      3 C1E          7.3940     0.4630     1.3680 c3         1 WIN      -0.085100
      4 C1V          5.3880     1.6590     0.4760 c2         1 WIN      -0.008400
      5 C1B          5.2570     2.6680     1.5780 c3         1 WIN      -0.069900
      6 C1N          4.3560     1.1610    -0.2240 ce         1 WIN      -0.297200
      7 C1W          2.9480     1.4960    -0.0100 c          1 WIN       0.620300
      8 O1G          2.4880     2.2840     0.7790 o          1 WIN      -0.477000
      9 O1T          2.1870     0.7620    -0.8420 os         1 WIN      -0.433100
     10 C2F          0.7860     0.7530    -0.6890 c6         1 WIN       0.093300
     11 C2K          0.3080    -0.6340    -1.0280 c5         1 WIN      -0.103700
     12 C2M         -1.2140    -0.7700    -1.0380 c5         1 WIN      -0.109000
     13 C1O         -1.2600    -2.2570    -1.4150 c5         1 WIN       0.171600
     14 O1S         -0.1440    -2.8510    -0.7460 os         1 WIN      -0.434000
     15 C2L          0.6760    -1.8460    -0.1800 c5         1 WIN       0.148000
     16 C2A          2.1230    -2.2780    -0.4340 c          1 WIN       0.615100
     17 O1J          2.5490    -2.4510    -1.5460 o          1 WIN      -0.468000
     18 O1R          2.8230    -2.4620     0.6630 os         1 WIN      -0.427100
     19 C1A          4.1920    -2.8470     0.5190 c3         1 WIN       0.153900
     20 C2E          0.2860    -1.6620     1.2900 c6         1 WIN       0.130300
     21 O1M          1.0360    -0.5910     1.8000 oh         1 WIN      -0.706000
     22 C2D         -1.2380    -1.4200     1.4430 c6         1 WIN       0.150300
     23 O1L         -1.9400    -2.6360     1.4540 oh         1 WIN      -0.644000
     24 C2J         -1.8000    -0.4770     0.3630 c6         1 WIN      -0.026700
     25 C2I         -3.3410    -0.2560     0.3760 c6         1 WIN      -0.016000
     26 C1F         -4.2000    -1.4800     0.0210 c3         1 WIN      -0.084100
     27 C1P         -3.7440     0.2290     1.7700 c6         1 WIN      -0.170400
     28 C1X         -5.1540     0.7330     1.8320 c          1 WIN       0.555300
     29 O1H         -5.8230     0.6930     2.8510 o          1 WIN      -0.538100
     30 C2B         -5.7210     1.3530     0.6270 ce         1 WIN      -0.025100
     31 O1K         -6.9740     1.8440     0.7600 oh         1 WIN      -0.530100
     32 C1Y         -5.0320     1.4390    -0.5240 c2         1 WIN      -0.097400
     33 C1C         -5.6030     2.1360    -1.7160 c3         1 WIN      -0.050900
     34 C2H         -3.6240     0.8970    -0.6170 c6         1 WIN      -0.020500
     35 C1Q         -3.2200     0.4800    -2.0310 c6         1 WIN      -0.070400
     36 C2G         -1.7380     0.1800    -2.1100 c6         1 WIN       0.225300
     37 O1U         -1.0860     1.4820    -2.0610 os         1 WIN      -0.479100
     38 C1Z          0.1480     1.7410    -1.6480 c          1 WIN       0.659100
     39 O1I          0.6810     2.7640    -1.9780 o          1 WIN      -0.468000
     40 H1D          7.2550     2.7770    -1.2290 hc         1 WIN       0.037867
     41 H1DA         7.8080     3.0790     0.4190 hc         1 WIN       0.037867
     42 H1DB         8.6580     1.9200    -0.5940 hc         1 WIN       0.037867
     43 H2C          6.6960     0.4320    -0.6480 hc         1 WIN       0.053700
     44 H1E          7.5030     1.1360     2.2200 hc         1 WIN       0.037867
     45 H1EA         6.7870    -0.3860     1.6850 hc         1 WIN       0.037867
     46 H1EB         8.3860     0.0850     1.1170 hc         1 WIN       0.037867
     47 H1B          4.7680     3.5770     1.2320 hc         1 WIN       0.056367
     48 H1BA         4.6570     2.2790     2.4000 hc         1 WIN       0.056367
     49 H1BB         6.2290     2.9430     1.9810 hc         1 WIN       0.056367
     50 H1N          4.5520     0.4320    -1.0010 ha         1 WIN       0.199000
     51 H2F          0.5080     1.0670     0.3190 h1         1 WIN       0.108700
     52 H2K          0.6630    -0.8500    -2.0460 hc         1 WIN       0.101700
     53 H1O         -2.1610    -2.7800    -1.1100 h1         1 WIN       0.066200
     54 H1OA        -1.1440    -2.3750    -2.4980 h1         1 WIN       0.066200
     55 H1A          4.2890    -3.7800    -0.0340 h1         1 WIN       0.050033
     56 H1AA         4.7660    -2.0680     0.0170 h1         1 WIN       0.050033
     57 H1AB         4.5710    -2.9820     1.5280 h1         1 WIN       0.050033
     58 H2E          0.5170    -2.5910     1.8320 h1         1 WIN       0.054700
     59 HO1M         0.9260    -0.5600     2.7550 ho         1 WIN       0.513000
     60 H2D         -1.3610    -0.9140     2.4130 h1         1 WIN       0.028700
     61 HO1L        -1.5530    -3.2050     2.1270 ho         1 WIN       0.448000
     62 H2J         -1.4190     0.5090     0.6580 hc         1 WIN       0.058700
     63 H1F         -4.1250    -2.2490     0.7830 hc         1 WIN       0.044700
     64 H1FA        -5.2490    -1.1980    -0.0640 hc         1 WIN       0.044700
     65 H1FB        -3.9330    -1.9350    -0.9290 hc         1 WIN       0.044700
     66 H1P         -3.6230    -0.5510     2.5230 hc         1 WIN       0.076200
     67 H1PA        -3.1000     1.0660     2.0740 hc         1 WIN       0.076200
     68 H1C         -6.5460     2.6300    -1.4990 hc         1 WIN       0.050367
     69 H1CA        -4.9080     2.8890    -2.0930 hc         1 WIN       0.050367
     70 H2H         -2.9740     1.7390    -0.3320 hc         1 WIN       0.070700
     71 H1Q         -3.7740    -0.4020    -2.3580 hc         1 WIN       0.069200
     72 H1QA        -3.4420     1.2610    -2.7590 hc         1 WIN       0.069200
     73 H2G         -1.4960    -0.2320    -3.0940 h1         1 WIN       0.065700
     74 H35         -7.2460     1.7110     1.6800 ho         1 WIN       0.481000
     75 H36         -5.7740     1.4340    -2.5360 hc         1 WIN       0.050367
@<TRIPOS>BOND
     1     1     2 1   
     2     1    40 1   
     3     1    41 1   
     4     1    42 1   
     5     2     3 1   
     6     2     4 1   
     7     2    43 1   
     8     3    44 1   
     9     3    45 1   
    10     3    46 1   
    11     4     5 1   
    12     4     6 2   
    13     5    47 1   
    14     5    48 1   
    15     5    49 1   
    16     6     7 1   
    17     6    50 1   
    18     7     8 2   
    19     7     9 1   
    20     9    10 1   
    21    10    11 1   
    22    10    38 1   
    23    10    51 1   
    24    11    12 1   
    25    11    15 1   
    26    11    52 1   
    27    12    13 1   
    28    12    24 1   
    29    12    36 1   
    30    13    14 1   
    31    13    53 1   
    32    13    54 1   
    33    14    15 1   
    34    15    16 1   
    35    15    20 1   
    36    16    17 2   
    37    16    18 1   
    38    18    19 1   
    39    19    55 1   
    40    19    56 1   
    41    19    57 1   
    42    20    21 1   
    43    20    22 1   
    44    20    58 1   
    45    21    59 1   
    46    22    23 1   
    47    22    24 1   
    48    22    60 1   
    49    23    61 1   
    50    24    25 1   
    51    24    62 1   
    52    25    26 1   
    53    25    27 1   
    54    25    34 1   
    55    26    63 1   
    56    26    64 1   
    57    26    65 1   
    58    27    28 1   
    59    27    66 1   
    60    27    67 1   
    61    28    29 2   
    62    28    30 1   
    63    30    31 1   
    64    30    32 2   
    65    31    74 1   
    66    32    33 1   
    67    32    34 1   
    68    33    68 1   
    69    33    69 1   
    70    33    75 1   
    71    34    35 1   
    72    34    70 1   
    73    35    36 1   
    74    35    71 1   
    75    35    72 1   
    76    36    37 1   
    77    36    73 1   
    78    37    38 1   
    79    38    39 2   
@<TRIPOS>SUBSTRUCTURE
     1 WIN         1 TEMP              0 ****  ****    0 ROOT
