@<TRIPOS>MOLECULE
WIP
   41    43     1     0     0
SMALL
No Charge or Current Charge


@<TRIPOS>ATOM
      1 C15         54.5470   -12.4580    -1.1960 ca         1 WIP      -0.102300
      2 C17         52.8670   -14.2230    -1.0580 ca         1 WIP      -0.123500
      3 C20         53.5740   -11.5160    -0.8060 ca         1 WIP      -0.088000
      4 C21         54.5300   -11.9570    -4.6220 ca         1 WIP      -0.124000
      5 C22         52.7210   -12.6230    -7.8480 ca         1 WIP      -0.105000
      6 C02         50.5240   -11.5800    -6.4600 ca         1 WIP       0.078100
      7 C03         51.7040   -11.8870    -5.7690 ca         1 WIP      -0.208000
      8 C04         52.8280   -12.4150    -6.4490 cp         1 WIP      -0.016000
      9 C05         54.0900   -12.7470    -5.7120 cp         1 WIP      -0.048000
     10 C06         54.8780   -13.8660    -6.0700 ca         1 WIP      -0.111000
     11 C07         56.0570   -14.1790    -5.3730 ca         1 WIP      -0.109000
     12 C08         56.4880   -13.3830    -4.2900 ca         1 WIP      -0.113600
     13 C09         57.7760   -13.7320    -3.5870 c          1 WIP       0.718600
     14 C12         55.7010   -12.2700    -3.9110 ca         1 WIP       0.075100
     15 C14         55.9740   -12.0090    -1.4980 c3         1 WIP       0.194900
     16 C16         54.1860   -13.8140    -1.3220 ca         1 WIP      -0.088000
     17 C18         51.9020   -13.2800    -0.6670 ca         1 WIP      -0.124000
     18 C19         52.2560   -11.9260    -0.5420 ca         1 WIP      -0.123500
     19 C23         51.5370   -12.3170    -8.5620 ca         1 WIP      -0.113600
     20 C27         50.4380   -11.7910    -7.8440 ca         1 WIP      -0.118000
     21 O10         57.9070   -14.8720    -3.1650 o          1 WIP      -0.729000
     22 O11         58.6630   -12.8910    -3.5340 o          1 WIP      -0.729000
     23 O13         56.0290   -11.4740    -2.8360 os         1 WIP      -0.361100
     24 O25         50.4100   -12.2580   -10.6430 o          1 WIP      -0.730500
     25 O26         52.4210   -13.0090   -10.6470 o          1 WIP      -0.730500
     26 H1          52.5930   -15.2710    -1.1590 ha         1 WIP       0.101000
     27 H2          53.8400   -10.4650    -0.7130 ha         1 WIP       0.121000
     28 H3          53.9510   -11.0900    -4.3150 ha         1 WIP       0.104000
     29 H4          53.5800   -13.0150    -8.3870 ha         1 WIP       0.134000
     30 H5          51.7510   -11.7310    -4.6950 ha         1 WIP       0.100000
     31 H6          54.5690   -14.5080    -6.8910 ha         1 WIP       0.107000
     32 H7          56.6450   -15.0420    -5.6770 ha         1 WIP       0.106000
     33 H8          56.6630   -12.8540    -1.3770 h1         1 WIP       0.065200
     34 H9          56.2730   -11.2400    -0.7730 h1         1 WIP       0.065200
     35 H10         54.9250   -14.5500    -1.6310 ha         1 WIP       0.121000
     36 H11         50.8810   -13.5970    -0.4640 ha         1 WIP       0.096000
     37 H12         51.5090   -11.1950    -0.2420 ha         1 WIP       0.101000
     38 H13         49.5130   -11.5460    -8.3590 ha         1 WIP       0.132000
     39 H14         49.6980   -11.0020    -4.8360 ho         1 WIP       0.438000
     40 C24         51.4490   -12.5450   -10.0660 c          1 WIP       0.707600
     41 O01         49.4550   -11.0770    -5.7830 oh         1 WIP      -0.568100
@<TRIPOS>BOND
     1     1     3 ar  
     2     1    15 1   
     3     1    16 ar  
     4     2    16 ar  
     5     2    17 ar  
     6     2    26 1   
     7     3    18 ar  
     8     3    27 1   
     9     4     9 ar  
    10     4    14 ar  
    11     4    28 1   
    12     5     8 ar  
    13     5    19 ar  
    14     5    29 1   
    15     6     7 ar  
    16     6    20 ar  
    17     6    41 1   
    18     7     8 ar  
    19     7    30 1   
    20     8     9 1   
    21     9    10 ar  
    22    10    11 ar  
    23    10    31 1   
    24    11    12 ar  
    25    11    32 1   
    26    12    13 1   
    27    12    14 ar  
    28    13    21 1   
    29    13    22 1   
    30    14    23 1   
    31    15    23 1   
    32    15    33 1   
    33    15    34 1   
    34    16    35 1   
    35    17    18 ar  
    36    17    36 1   
    37    18    37 1   
    38    19    20 ar  
    39    19    40 1   
    40    20    38 1   
    41    24    40 1   
    42    25    40 1   
    43    39    41 1   
@<TRIPOS>SUBSTRUCTURE
     1 WIP         1 TEMP              0 ****  ****    0 ROOT
