@<TRIPOS>MOLECULE
WIP
   41    43     1     0     0
SMALL
abcg2


@<TRIPOS>ATOM
      1 C15         54.3300   -12.4980    -1.3890 ca         1 WIP      -0.102300
      2 C17         52.3650   -13.8650    -1.7460 ca         1 WIP      -0.123500
      3 C20         53.5020   -11.4120    -1.1000 ca         1 WIP      -0.088000
      4 C21         54.7100   -12.0780    -4.4660 ca         1 WIP      -0.124000
      5 C22         52.7660   -12.5860    -7.5950 ca         1 WIP      -0.105000
      6 C02         50.6440   -11.9330    -5.9350 ca         1 WIP       0.078100
      7 C03         51.9010   -12.1640    -5.3890 ca         1 WIP      -0.208000
      8 C04         52.9800   -12.4920    -6.2180 cp         1 WIP      -0.016000
      9 C05         54.3090   -12.7530    -5.6210 cp         1 WIP      -0.048000
     10 C06         55.1800   -13.7100    -6.1540 ca         1 WIP      -0.111000
     11 C07         56.3920   -13.9880    -5.5350 ca         1 WIP      -0.109000
     12 C08         56.7740   -13.3410    -4.3590 ca         1 WIP      -0.113600
     13 C09         58.0800   -13.6920    -3.6620 c          1 WIP       0.718600
     14 C12         55.9110   -12.3770    -3.8380 ca         1 WIP       0.075100
     15 C14         55.8220   -12.3260    -1.4500 c3         1 WIP       0.194900
     16 C16         53.7490   -13.7240    -1.7070 ca         1 WIP      -0.088000
     17 C18         51.5480   -12.7750    -1.4670 ca         1 WIP      -0.124000
     18 C19         52.1190   -11.5470    -1.1400 ca         1 WIP      -0.123500
     19 C23         51.5040   -12.3620    -8.1450 ca         1 WIP      -0.113600
     20 C27         50.4410   -12.0310    -7.3080 ca         1 WIP      -0.118000
     21 O10         58.0140   -14.5820    -2.7770 o          1 WIP      -0.729000
     22 O11         59.1050   -13.0770    -4.0390 o          1 WIP      -0.729000
     23 O13         56.2500   -11.6870    -2.6870 os         1 WIP      -0.361100
     24 O25         50.1200   -12.2640   -10.0820 o          1 WIP      -0.730500
     25 O26         52.2830   -12.7860   -10.3550 o          1 WIP      -0.730500
     26 H1          51.9270   -14.8210    -2.0030 ha         1 WIP       0.101000
     27 H2          53.9460   -10.4540    -0.8560 ha         1 WIP       0.121000
     28 H3          54.0800   -11.3160    -4.0290 ha         1 WIP       0.104000
     29 H4          53.5830   -12.8240    -8.2590 ha         1 WIP       0.134000
     30 H5          52.0300   -12.1160    -4.3150 ha         1 WIP       0.100000
     31 H6          54.8970   -14.2610    -7.0410 ha         1 WIP       0.107000
     32 H7          57.0460   -14.7400    -5.9610 ha         1 WIP       0.106000
     33 H8          56.3290   -13.2870    -1.3640 h1         1 WIP       0.065200
     34 H9          56.1760   -11.6560    -0.6680 h1         1 WIP       0.065200
     35 H10         54.3870   -14.5680    -1.9430 ha         1 WIP       0.121000
     36 H11         50.4710   -12.8790    -1.5060 ha         1 WIP       0.096000
     37 H12         51.4860   -10.6970    -0.9180 ha         1 WIP       0.101000
     38 H13         49.4590   -11.8570    -7.7250 ha         1 WIP       0.132000
     39 H14         49.8360   -11.5830    -4.2230 ho         1 WIP       0.438000
     40 C24         51.2840   -12.4790    -9.6560 c          1 WIP       0.707600
     41 O01         49.5650   -11.6190    -5.1510 oh         1 WIP      -0.568100
@<TRIPOS>BOND
     1     1     3 ar  
     2     1    15 1   
     3     1    16 ar  
     4     2    16 ar  
     5     2    17 ar  
     6     2    26 1   
     7     3    18 ar  
     8     3    27 1   
     9     4     9 ar  
    10     4    14 ar  
    11     4    28 1   
    12     5     8 ar  
    13     5    19 ar  
    14     5    29 1   
    15     6     7 ar  
    16     6    20 ar  
    17     6    41 1   
    18     7     8 ar  
    19     7    30 1   
    20     8     9 1   
    21     9    10 ar  
    22    10    11 ar  
    23    10    31 1   
    24    11    12 ar  
    25    11    32 1   
    26    12    13 1   
    27    12    14 ar  
    28    13    21 1   
    29    13    22 1   
    30    14    23 1   
    31    15    23 1   
    32    15    33 1   
    33    15    34 1   
    34    16    35 1   
    35    17    18 ar  
    36    17    36 1   
    37    18    37 1   
    38    19    20 ar  
    39    19    40 1   
    40    20    38 1   
    41    24    40 1   
    42    25    40 1   
    43    39    41 1   
@<TRIPOS>SUBSTRUCTURE
     1 WIP         1 TEMP              0 ****  ****    0 ROOT
