@<TRIPOS>MOLECULE
WIR
   57    61     1     0     0
SMALL
No Charge or Current Charge


@<TRIPOS>ATOM
      1 C12         14.6020    -8.3660    17.8150 ca         1 WIR      -0.437900
      2 C13         14.0460    -8.4330    16.5760 ca         1 WIR       0.209500
      3 C16         14.3640    -7.0450    18.3180 cc         1 WIR       0.405800
      4 C18         14.7320   -10.5890    16.4210 ca         1 WIR       0.451900
      5 C20         14.5600   -12.9980    16.3880 c5         1 WIR       0.301800
      6 C23         13.7920   -15.2890    15.6400 c5         1 WIR      -0.062100
      7 C01         18.0790   -10.9670    23.4150 c3         1 WIR       0.079900
      8 C03         17.3420   -12.1820    21.2420 cc         1 WIR      -0.105300
      9 C04         17.8350   -13.6100    21.4890 c3         1 WIR       0.016300
     10 C05         19.3220   -13.6290    21.9350 c3         1 WIR      -0.084767
     11 C06         17.7310   -14.4410    20.1800 c3         1 WIR      -0.084767
     12 C07         16.9500   -14.2970    22.5610 c3         1 WIR      -0.084767
     13 C08         16.6850   -11.6750    20.1530 cd         1 WIR      -0.222000
     14 C09         16.4480   -10.3180    20.4000 cd         1 WIR       0.503900
     15 C11         15.2490    -9.4690    18.3510 ca         1 WIR       0.495900
     16 C21         13.4240   -13.7540    15.5330 c5         1 WIR       0.151300
     17 C24         15.2750   -15.2370    15.9050 ca         1 WIR      -0.085300
     18 C25         15.6970   -13.9850    16.3080 ca         1 WIR      -0.103300
     19 C26         17.0480   -13.7420    16.6120 ca         1 WIR      -0.070000
     20 C27         17.9730   -14.7980    16.5000 ca         1 WIR      -0.115000
     21 C28         17.5410   -16.0770    16.0930 ca         1 WIR      -0.111000
     22 C29         16.1830   -16.3020    15.7930 ca         1 WIR      -0.100000
     23 N02         17.4480   -11.0530    22.0850 na         1 WIR       0.119800
     24 N10         15.8210    -9.4230    19.6060 nu         1 WIR      -0.879800
     25 N14         13.5000    -7.1880    16.3560 na         1 WIR      -0.183100
     26 N15         13.6850    -6.3050    17.4300 nd         1 WIR      -0.531100
     27 N17         14.0990    -9.5520    15.8380 nb         1 WIR      -0.301000
     28 N19         14.8180   -11.7310    15.6440 nu         1 WIR      -0.910100
     29 N30         15.3230   -10.5990    17.6350 nb         1 WIR      -0.346000
     30 N31         16.8890    -9.9030    21.5500 nc         1 WIR      -0.585800
     31 O22         13.3450   -13.3420    14.1480 oh         1 WIR      -0.663000
     32 H1          14.6350    -6.5770    19.2560 h4         1 WIR       0.043800
     33 H2          14.2270   -12.8730    17.4300 h1         1 WIR       0.087700
     34 H3          13.2620   -15.7650    16.4730 hc         1 WIR       0.059200
     35 H4          13.5400   -15.8500    14.7320 hc         1 WIR       0.059200
     36 H5          17.7630   -10.0450    23.9190 h1         1 WIR       0.054367
     37 H6          17.7830   -11.8200    24.0330 h1         1 WIR       0.054367
     38 H7          19.1690   -10.9520    23.3010 h1         1 WIR       0.054367
     39 H8          19.4520   -13.2260    22.9440 hc         1 WIR       0.039700
     40 H9          19.7120   -14.6540    21.9490 hc         1 WIR       0.039700
     41 H10         19.9410   -13.0410    21.2460 hc         1 WIR       0.039700
     42 H11         18.0970   -15.4640    20.3300 hc         1 WIR       0.039700
     43 H12         16.6930   -14.5110    19.8330 hc         1 WIR       0.039700
     44 H13         18.3290   -13.9850    19.3820 hc         1 WIR       0.039700
     45 H14         17.0210   -13.7920    23.5300 hc         1 WIR       0.039700
     46 H15         15.8970   -14.2900    22.2560 hc         1 WIR       0.039700
     47 H16         17.2540   -15.3400    22.7080 hc         1 WIR       0.039700
     48 H17         16.3970   -12.2250    19.2700 ha         1 WIR       0.168000
     49 H18         12.4450   -13.5770    16.0020 h1         1 WIR       0.050700
     50 H19         17.3730   -12.7520    16.9250 ha         1 WIR       0.130000
     51 H20         19.0220   -14.6260    16.7310 ha         1 WIR       0.114000
     52 H21         18.2570   -16.8920    16.0110 ha         1 WIR       0.111000
     53 H22         15.8430   -17.2870    15.4810 ha         1 WIR       0.112000
     54 H23         15.7650    -8.5200    20.0590 hn         1 WIR       0.516000
     55 H24         13.0060    -6.9080    15.5110 hn         1 WIR       0.383000
     56 H25         14.3320   -11.6610    14.7480 hn         1 WIR       0.527000
     57 H26         12.6700   -13.9130    13.7190 ho         1 WIR       0.446000
@<TRIPOS>BOND
     1     1     2 ar  
     2     1     3 1   
     3     1    15 ar  
     4     2    25 1   
     5     2    27 ar  
     6     3    26 2   
     7     3    32 1   
     8     4    27 ar  
     9     4    28 1   
    10     4    29 ar  
    11     5    16 1   
    12     5    18 1   
    13     5    28 1   
    14     5    33 1   
    15     6    16 1   
    16     6    17 1   
    17     6    34 1   
    18     6    35 1   
    19     7    23 1   
    20     7    36 1   
    21     7    37 1   
    22     7    38 1   
    23     8     9 1   
    24     8    13 2   
    25     8    23 1   
    26     9    10 1   
    27     9    11 1   
    28     9    12 1   
    29    10    39 1   
    30    10    40 1   
    31    10    41 1   
    32    11    42 1   
    33    11    43 1   
    34    11    44 1   
    35    12    45 1   
    36    12    46 1   
    37    12    47 1   
    38    13    14 1   
    39    13    48 1   
    40    14    24 1   
    41    14    30 2   
    42    15    24 1   
    43    15    29 ar  
    44    16    31 1   
    45    16    49 1   
    46    17    18 ar  
    47    17    22 ar  
    48    18    19 ar  
    49    19    20 ar  
    50    19    50 1   
    51    20    21 ar  
    52    20    51 1   
    53    21    22 ar  
    54    21    52 1   
    55    22    53 1   
    56    23    30 1   
    57    24    54 1   
    58    25    26 1   
    59    25    55 1   
    60    28    56 1   
    61    31    57 1   
@<TRIPOS>SUBSTRUCTURE
     1 WIR         1 TEMP              0 ****  ****    0 ROOT
