@<TRIPOS>MOLECULE
WIR
   57    61     1     0     0
SMALL
abcg2


@<TRIPOS>ATOM
      1 C12         14.8520    -8.1810    17.7110 ca         1 WIR      -0.437900
      2 C13         14.2270    -8.3440    16.4600 ca         1 WIR       0.209500
      3 C16         14.9100    -6.7780    17.9130 cc         1 WIR       0.405800
      4 C18         14.3540   -10.5660    16.5710 ca         1 WIR       0.451900
      5 C20         14.4400   -13.0350    16.6880 c5         1 WIR       0.301800
      6 C23         14.3500   -15.4540    16.5540 c5         1 WIR      -0.062100
      7 C01         18.1230   -11.3910    23.1520 c3         1 WIR       0.079900
      8 C03         17.0730   -12.3990    21.0500 cc         1 WIR      -0.105300
      9 C04         17.3850   -13.8690    21.2510 c3         1 WIR       0.016300
     10 C05         18.8950   -14.0920    21.4610 c3         1 WIR      -0.084767
     11 C06         16.9630   -14.6400    19.9890 c3         1 WIR      -0.084767
     12 C07         16.5860   -14.4340    22.4420 c3         1 WIR      -0.084767
     13 C08         16.4290   -11.8110    19.9720 cd         1 WIR      -0.222000
     14 C09         16.3860   -10.4370    20.2720 cd         1 WIR       0.503900
     15 C11         15.2330    -9.3850    18.3560 ca         1 WIR       0.495900
     16 C21         13.5260   -14.1920    16.2360 c5         1 WIR       0.151300
     17 C24         15.7770   -14.9850    16.4090 ca         1 WIR      -0.085300
     18 C25         15.8330   -13.5930    16.4590 ca         1 WIR      -0.103300
     19 C26         17.0400   -12.9220    16.3480 ca         1 WIR      -0.070000
     20 C27         18.2090   -13.6670    16.1910 ca         1 WIR      -0.115000
     21 C28         18.1580   -15.0590    16.1450 ca         1 WIR      -0.111000
     22 C29         16.9380   -15.7270    16.2520 ca         1 WIR      -0.100000
     23 N02         17.3630   -11.3890    21.9160 na         1 WIR       0.119800
     24 N10         15.8730    -9.3610    19.5520 nu         1 WIR      -0.879800
     25 N14         13.9620    -7.0960    16.0130 na         1 WIR      -0.183100
     26 N15         14.3740    -6.1320    16.8950 nd         1 WIR      -0.531100
     27 N17         13.9580    -9.5040    15.8500 nb         1 WIR      -0.301000
     28 N19         14.1140   -11.7890    16.0420 nu         1 WIR      -0.910100
     29 N30         14.9710   -10.5490    17.7750 nb         1 WIR      -0.346000
     30 N31         16.9550   -10.1790    21.4470 nc         1 WIR      -0.585800
     31 O22         13.3190   -14.0410    14.8280 oh         1 WIR      -0.663000
     32 H1          15.3140    -6.2280    18.7500 h4         1 WIR       0.043800
     33 H2          14.2970   -12.9020    17.7630 h1         1 WIR       0.087700
     34 H3          14.1510   -15.7780    17.5810 hc         1 WIR       0.059200
     35 H4          14.0890   -16.2820    15.8920 hc         1 WIR       0.059200
     36 H5          17.7550   -10.5780    23.7730 h1         1 WIR       0.054367
     37 H6          17.9870   -12.3280    23.6800 h1         1 WIR       0.054367
     38 H7          19.1860   -11.2410    22.9560 h1         1 WIR       0.054367
     39 H8          19.2590   -13.6440    22.3840 hc         1 WIR       0.039700
     40 H9          19.0990   -15.1640    21.5090 hc         1 WIR       0.039700
     41 H10         19.4630   -13.6730    20.6290 hc         1 WIR       0.039700
     42 H11         17.1960   -15.6980    20.1210 hc         1 WIR       0.039700
     43 H12         15.8920   -14.5500    19.8040 hc         1 WIR       0.039700
     44 H13         17.4910   -14.2840    19.1040 hc         1 WIR       0.039700
     45 H14         16.8490   -13.9580    23.3860 hc         1 WIR       0.039700
     46 H15         15.5150   -14.2990    22.2800 hc         1 WIR       0.039700
     47 H16         16.7850   -15.5030    22.5400 hc         1 WIR       0.039700
     48 H17         16.0490   -12.2930    19.0980 ha         1 WIR       0.168000
     49 H18         12.5660   -14.1720    16.7560 h1         1 WIR       0.050700
     50 H19         17.0780   -11.8410    16.3870 ha         1 WIR       0.130000
     51 H20         19.1620   -13.1600    16.1020 ha         1 WIR       0.114000
     52 H21         19.0730   -15.6250    16.0210 ha         1 WIR       0.111000
     53 H22         16.9020   -16.8100    16.2070 ha         1 WIR       0.112000
     54 H23         16.0390    -8.4560    19.9660 hn         1 WIR       0.516000
     55 H24         13.5150    -6.8330    15.1490 hn         1 WIR       0.383000
     56 H25         13.7110   -11.8310    15.1200 hn         1 WIR       0.527000
     57 H26         12.6900   -14.7150    14.5400 ho         1 WIR       0.446000
@<TRIPOS>BOND
     1     1     2 ar  
     2     1     3 1   
     3     1    15 ar  
     4     2    25 1   
     5     2    27 ar  
     6     3    26 2   
     7     3    32 1   
     8     4    27 ar  
     9     4    28 1   
    10     4    29 ar  
    11     5    16 1   
    12     5    18 1   
    13     5    28 1   
    14     5    33 1   
    15     6    16 1   
    16     6    17 1   
    17     6    34 1   
    18     6    35 1   
    19     7    23 1   
    20     7    36 1   
    21     7    37 1   
    22     7    38 1   
    23     8     9 1   
    24     8    13 2   
    25     8    23 1   
    26     9    10 1   
    27     9    11 1   
    28     9    12 1   
    29    10    39 1   
    30    10    40 1   
    31    10    41 1   
    32    11    42 1   
    33    11    43 1   
    34    11    44 1   
    35    12    45 1   
    36    12    46 1   
    37    12    47 1   
    38    13    14 1   
    39    13    48 1   
    40    14    24 1   
    41    14    30 2   
    42    15    24 1   
    43    15    29 ar  
    44    16    31 1   
    45    16    49 1   
    46    17    18 ar  
    47    17    22 ar  
    48    18    19 ar  
    49    19    20 ar  
    50    19    50 1   
    51    20    21 ar  
    52    20    51 1   
    53    21    22 ar  
    54    21    52 1   
    55    22    53 1   
    56    23    30 1   
    57    24    54 1   
    58    25    26 1   
    59    25    55 1   
    60    28    56 1   
    61    31    57 1   
@<TRIPOS>SUBSTRUCTURE
     1 WIR         1 TEMP              0 ****  ****    0 ROOT
