@<TRIPOS>MOLECULE
WIU
   68    71     1     0     0
SMALL
No Charge or Current Charge


@<TRIPOS>ATOM
      1 C20        -42.2470    23.8160   -68.8720 c3         1 WIU       0.279800
      2 C18        -40.5650    24.6940   -67.1260 ca         1 WIU       0.450900
      3 C21        -41.2540    23.4820   -69.9910 ca         1 WIU      -0.101300
      4 C26        -40.4850    24.4870   -70.6190 ca         1 WIU      -0.099000
      5 C25        -39.5860    24.1570   -71.6480 ca         1 WIU      -0.108500
      6 C24        -39.4510    22.8230   -72.0640 ca         1 WIU      -0.106000
      7 C23        -40.2210    21.8190   -71.4550 ca         1 WIU      -0.108500
      8 C22        -41.1200    22.1480   -70.4260 ca         1 WIU      -0.099000
      9 C16        -37.3850    24.8360   -64.6500 cc         1 WIU       0.403800
     10 C12        -38.4600    24.5860   -65.5660 ca         1 WIU      -0.438900
     11 C11        -38.8460    23.4540   -66.2700 ca         1 WIU       0.493900
     12 C13        -39.1720    25.7370   -65.6750 ca         1 WIU       0.210500
     13 C01        -37.0470    17.7490   -66.5180 c3         1 WIU       0.078900
     14 C03        -39.0740    19.1060   -67.4080 cc         1 WIU      -0.108300
     15 C04        -39.9020    18.0150   -68.0900 c3         1 WIU       0.017300
     16 C05        -40.5710    17.1150   -67.0200 c3         1 WIU      -0.085767
     17 C06        -41.0270    18.6560   -68.9460 c3         1 WIU      -0.085767
     18 C07        -39.0340    17.1500   -69.0450 c3         1 WIU      -0.085767
     19 C08        -39.3340    20.4480   -67.2870 cd         1 WIU      -0.218000
     20 C09        -38.2830    21.0080   -66.5510 cd         1 WIU       0.507900
     21 C27        -43.6040    24.2900   -69.4860 c3         1 WIU       0.165600
     22 C29        -44.6520    25.5880   -67.7210 c          1 WIU       0.637100
     23 C31        -46.0130    26.5360   -65.8390 c3         1 WIU       0.118000
     24 C32        -46.6950    27.7610   -66.5020 c3         1 WIU       0.123800
     25 N02        -37.8480    18.9700   -66.7200 na         1 WIU       0.122800
     26 N10        -38.1250    22.2840   -66.1480 nu         1 WIU      -0.879800
     27 N14        -38.5360    26.6380   -64.8510 na         1 WIU      -0.185100
     28 N15        -37.4180    26.0980   -64.2000 nd         1 WIU      -0.531100
     29 N17        -40.2530    25.8230   -66.4610 nb         1 WIU      -0.300000
     30 N19        -41.6760    24.8070   -67.9370 nu         1 WIU      -0.932100
     31 N30        -45.6570    25.4910   -66.8050 ns         1 WIU      -0.495900
     32 N33        -47.1070    28.7940   -65.5200 n8         1 WIU      -0.999200
     33 N35        -39.9240    23.5060   -67.0710 nb         1 WIU      -0.330000
     34 N36        -37.3700    20.1570   -66.1920 nc         1 WIU      -0.590800
     35 O28        -44.6230    24.4460   -68.4640 os         1 WIU      -0.468100
     36 O34        -43.9060    26.5460   -67.8470 o          1 WIU      -0.549000
     37 H1         -42.4580    22.8900   -68.3160 h1         1 WIU       0.086700
     38 H2         -40.5810    25.5250   -70.3090 ha         1 WIU       0.115500
     39 H3         -38.9940    24.9370   -72.1230 ha         1 WIU       0.113000
     40 H4         -38.7550    22.5680   -72.8610 ha         1 WIU       0.113000
     41 H5         -40.1230    20.7860   -71.7820 ha         1 WIU       0.113000
     42 H6         -41.7210    21.3660   -69.9680 ha         1 WIU       0.115500
     43 H7         -36.5940    24.1940   -64.2850 h4         1 WIU       0.042800
     44 H8         -36.2980    17.9190   -65.7340 h1         1 WIU       0.055033
     45 H9         -37.6890    16.9180   -66.2110 h1         1 WIU       0.055033
     46 H10        -36.5300    17.4930   -67.4500 h1         1 WIU       0.055033
     47 H11        -41.1950    17.7150   -66.3460 hc         1 WIU       0.039478
     48 H12        -41.2120    16.3580   -67.4890 hc         1 WIU       0.039478
     49 H13        -39.8300    16.5890   -66.4100 hc         1 WIU       0.039478
     50 H14        -41.7010    19.2620   -68.3290 hc         1 WIU       0.039478
     51 H15        -40.5970    19.2940   -69.7250 hc         1 WIU       0.039478
     52 H16        -41.6350    17.8880   -69.4400 hc         1 WIU       0.039478
     53 H17        -38.3430    16.5020   -68.4970 hc         1 WIU       0.039478
     54 H18        -39.6640    16.4920   -69.6580 hc         1 WIU       0.039478
     55 H19        -38.4500    17.7850   -69.7220 hc         1 WIU       0.039478
     56 H20        -40.1950    20.9770   -67.6690 ha         1 WIU       0.166000
     57 H21        -43.4570    25.2190   -70.0530 h1         1 WIU       0.074700
     58 H22        -43.9260    23.5250   -70.2040 h1         1 WIU       0.074700
     59 H23        -45.1020    26.8630   -65.3190 h1         1 WIU       0.067200
     60 H24        -46.6900    26.1020   -65.0920 h1         1 WIU       0.067200
     61 H25        -46.0000    28.2210   -67.2190 h1         1 WIU       0.037200
     62 H26        -47.5840    27.4270   -67.0550 h1         1 WIU       0.037200
     63 H27        -37.2880    22.3720   -65.5870 hn         1 WIU       0.514000
     64 H28        -38.8250    27.6040   -64.7080 hn         1 WIU       0.383000
     65 H29        -42.2030    25.6780   -67.8240 hn         1 WIU       0.531000
     66 H30        -46.1910    24.6310   -66.8220 hn         1 WIU       0.327500
     67 H31        -47.5780    29.5610   -66.0170 hn         1 WIU       0.396500
     68 H32        -47.8470    28.4130   -64.9160 hn         1 WIU       0.396500
@<TRIPOS>BOND
     1     1     3 1   
     2     1    21 1   
     3     1    30 1   
     4     1    37 1   
     5     2    29 ar  
     6     2    30 1   
     7     2    33 ar  
     8     3     4 ar  
     9     3     8 ar  
    10     4     5 ar  
    11     4    38 1   
    12     5     6 ar  
    13     5    39 1   
    14     6     7 ar  
    15     6    40 1   
    16     7     8 ar  
    17     7    41 1   
    18     8    42 1   
    19     9    10 1   
    20     9    28 2   
    21     9    43 1   
    22    10    11 ar  
    23    10    12 ar  
    24    11    26 1   
    25    11    33 ar  
    26    12    27 1   
    27    12    29 ar  
    28    13    25 1   
    29    13    44 1   
    30    13    45 1   
    31    13    46 1   
    32    14    15 1   
    33    14    19 2   
    34    14    25 1   
    35    15    16 1   
    36    15    17 1   
    37    15    18 1   
    38    16    47 1   
    39    16    48 1   
    40    16    49 1   
    41    17    50 1   
    42    17    51 1   
    43    17    52 1   
    44    18    53 1   
    45    18    54 1   
    46    18    55 1   
    47    19    20 1   
    48    19    56 1   
    49    20    26 1   
    50    20    34 2   
    51    21    35 1   
    52    21    57 1   
    53    21    58 1   
    54    22    31 1   
    55    22    35 1   
    56    22    36 2   
    57    23    24 1   
    58    23    31 1   
    59    23    59 1   
    60    23    60 1   
    61    24    32 1   
    62    24    61 1   
    63    24    62 1   
    64    25    34 1   
    65    26    63 1   
    66    27    28 1   
    67    27    64 1   
    68    30    65 1   
    69    31    66 1   
    70    32    67 1   
    71    32    68 1   
@<TRIPOS>SUBSTRUCTURE
     1 WIU         1 TEMP              0 ****  ****    0 ROOT
