@<TRIPOS>MOLECULE
WIU
   68    71     1     0     0
SMALL
abcg2


@<TRIPOS>ATOM
      1 C20        -41.9060    23.7240   -68.8180 c3         1 WIU       0.279800
      2 C18        -40.3670    24.8060   -67.1890 ca         1 WIU       0.450900
      3 C21        -41.0670    23.4250   -70.0530 ca         1 WIU      -0.101300
      4 C26        -40.1400    24.3380   -70.5510 ca         1 WIU      -0.099000
      5 C25        -39.3980    24.0420   -71.6910 ca         1 WIU      -0.108500
      6 C24        -39.5770    22.8300   -72.3480 ca         1 WIU      -0.106000
      7 C23        -40.5050    21.9140   -71.8580 ca         1 WIU      -0.108500
      8 C22        -41.2430    22.2130   -70.7200 ca         1 WIU      -0.099000
      9 C16        -37.2690    25.1020   -64.5910 cc         1 WIU       0.403800
     10 C12        -38.2730    24.7010   -65.5100 ca         1 WIU      -0.438900
     11 C11        -38.7340    23.5320   -66.1660 ca         1 WIU       0.493900
     12 C13        -38.9900    25.8750   -65.8000 ca         1 WIU       0.210500
     13 C01        -37.5960    17.6880   -66.1980 c3         1 WIU       0.078900
     14 C03        -39.2520    19.2470   -67.3660 cc         1 WIU      -0.108300
     15 C04        -40.0480    18.2390   -68.1700 c3         1 WIU       0.017300
     16 C05        -40.9090    17.3700   -67.2320 c3         1 WIU      -0.085767
     17 C06        -40.9920    18.9930   -69.1180 c3         1 WIU      -0.085767
     18 C07        -39.1280    17.3540   -69.0330 c3         1 WIU      -0.085767
     19 C08        -39.4030    20.6290   -67.3260 cd         1 WIU      -0.218000
     20 C09        -38.4400    21.0750   -66.4030 cd         1 WIU       0.507900
     21 C27        -43.3460    24.0080   -69.2510 c3         1 WIU       0.165600
     22 C29        -44.4470    25.3740   -67.6280 c          1 WIU       0.637100
     23 C31        -45.6600    26.5170   -65.8290 c3         1 WIU       0.118000
     24 C32        -46.9330    27.1400   -66.3950 c3         1 WIU       0.123800
     25 N02        -38.2480    18.9500   -66.4980 na         1 WIU       0.122800
     26 N10        -38.1180    22.3470   -65.9370 nu         1 WIU      -0.879800
     27 N14        -38.4040    26.8580   -65.0780 na         1 WIU      -0.185100
     28 N15        -37.3500    26.3940   -64.3360 nd         1 WIU      -0.531100
     29 N17        -40.0350    25.9790   -66.6240 nb         1 WIU      -0.300000
     30 N19        -41.4230    24.8380   -68.0350 nu         1 WIU      -0.932100
     31 N30        -45.2440    25.3260   -66.5490 ns         1 WIU      -0.495900
     32 N33        -47.2880    28.3310   -65.6170 n8         1 WIU      -0.999200
     33 N35        -39.7680    23.6050   -67.0000 nb         1 WIU      -0.330000
     34 N36        -37.7360    20.0600   -65.9070 nc         1 WIU      -0.590800
     35 O28        -44.2240    24.1280   -68.1200 os         1 WIU      -0.468100
     36 O34        -43.9690    26.3920   -68.1110 o          1 WIU      -0.549000
     37 H1         -41.9130    22.8340   -68.1860 h1         1 WIU       0.086700
     38 H2         -39.9900    25.2790   -70.0400 ha         1 WIU       0.115500
     39 H3         -38.6770    24.7600   -72.0620 ha         1 WIU       0.113000
     40 H4         -38.9970    22.5980   -73.2320 ha         1 WIU       0.113000
     41 H5         -40.6470    20.9640   -72.3580 ha         1 WIU       0.113000
     42 H6         -41.9550    21.4920   -70.3370 ha         1 WIU       0.115500
     43 H7         -36.5030    24.5060   -64.1170 h4         1 WIU       0.042800
     44 H8         -37.1560    17.7730   -65.2080 h1         1 WIU       0.055033
     45 H9         -38.3150    16.8760   -66.1970 h1         1 WIU       0.055033
     46 H10        -36.8100    17.4730   -66.9240 h1         1 WIU       0.055033
     47 H11        -41.5830    17.9970   -66.6460 hc         1 WIU       0.039478
     48 H12        -41.5120    16.6790   -67.8250 hc         1 WIU       0.039478
     49 H13        -40.3090    16.7790   -66.5410 hc         1 WIU       0.039478
     50 H14        -41.6800    19.6370   -68.5700 hc         1 WIU       0.039478
     51 H15        -40.4310    19.6090   -69.8210 hc         1 WIU       0.039478
     52 H16        -41.5810    18.2730   -69.6880 hc         1 WIU       0.039478
     53 H17        -38.4910    16.7030   -68.4380 hc         1 WIU       0.039478
     54 H18        -39.7400    16.7200   -69.6770 hc         1 WIU       0.039478
     55 H19        -38.4900    17.9710   -69.6680 hc         1 WIU       0.039478
     56 H20        -40.1040    21.2280   -67.8700 ha         1 WIU       0.166000
     57 H21        -43.3960    24.9130   -69.8550 h1         1 WIU       0.074700
     58 H22        -43.7250    23.1680   -69.8270 h1         1 WIU       0.074700
     59 H23        -44.8490    27.2440   -65.8620 h1         1 WIU       0.067200
     60 H24        -45.8170    26.2350   -64.7860 h1         1 WIU       0.067200
     61 H25        -46.7510    27.4440   -67.4280 h1         1 WIU       0.037200
     62 H26        -47.7220    26.3770   -66.4130 h1         1 WIU       0.037200
     63 H27        -37.3490    22.3600   -65.2840 hn         1 WIU       0.514000
     64 H28        -38.6580    27.8320   -65.0410 hn         1 WIU       0.383000
     65 H29        -41.8650    25.7360   -68.1630 hn         1 WIU       0.531000
     66 H30        -45.6070    24.4280   -66.2710 hn         1 WIU       0.327500
     67 H31        -48.0710    28.8060   -66.0530 hn         1 WIU       0.396500
     68 H32        -47.6040    28.0560   -64.6920 hn         1 WIU       0.396500
@<TRIPOS>BOND
     1     1     3 1   
     2     1    21 1   
     3     1    30 1   
     4     1    37 1   
     5     2    29 ar  
     6     2    30 1   
     7     2    33 ar  
     8     3     4 ar  
     9     3     8 ar  
    10     4     5 ar  
    11     4    38 1   
    12     5     6 ar  
    13     5    39 1   
    14     6     7 ar  
    15     6    40 1   
    16     7     8 ar  
    17     7    41 1   
    18     8    42 1   
    19     9    10 1   
    20     9    28 2   
    21     9    43 1   
    22    10    11 ar  
    23    10    12 ar  
    24    11    26 1   
    25    11    33 ar  
    26    12    27 1   
    27    12    29 ar  
    28    13    25 1   
    29    13    44 1   
    30    13    45 1   
    31    13    46 1   
    32    14    15 1   
    33    14    19 2   
    34    14    25 1   
    35    15    16 1   
    36    15    17 1   
    37    15    18 1   
    38    16    47 1   
    39    16    48 1   
    40    16    49 1   
    41    17    50 1   
    42    17    51 1   
    43    17    52 1   
    44    18    53 1   
    45    18    54 1   
    46    18    55 1   
    47    19    20 1   
    48    19    56 1   
    49    20    26 1   
    50    20    34 2   
    51    21    35 1   
    52    21    57 1   
    53    21    58 1   
    54    22    31 1   
    55    22    35 1   
    56    22    36 2   
    57    23    24 1   
    58    23    31 1   
    59    23    59 1   
    60    23    60 1   
    61    24    32 1   
    62    24    61 1   
    63    24    62 1   
    64    25    34 1   
    65    26    63 1   
    66    27    28 1   
    67    27    64 1   
    68    30    65 1   
    69    31    66 1   
    70    32    67 1   
    71    32    68 1   
@<TRIPOS>SUBSTRUCTURE
     1 WIU         1 TEMP              0 ****  ****    0 ROOT
