@<TRIPOS>MOLECULE
WIV
   50    54     1     0     0
SMALL
abcg2


@<TRIPOS>ATOM
      1 C1           1.7910    -1.3280   -39.9810 c3         1 WIV      -0.104100
      2 C2           1.8440    -2.8480   -39.9710 c3         1 WIV       0.113300
      3 C3           0.9460    -3.4520   -38.9000 c3         1 WIV      -0.104100
      4 C6           0.3060    -3.7400   -43.0140 cc         1 WIV       0.378800
      5 C7           1.5150    -4.4490   -43.2230 ca         1 WIV      -0.237900
      6 C8           2.1180    -5.2480   -44.2030 ca         1 WIV      -0.037600
      7 C12          1.6590    -6.0820   -47.8360 ca         1 WIV      -0.052000
      8 C15          0.7430    -6.8280   -50.3560 ca         1 WIV      -0.073000
      9 C19          1.9250    -5.3470   -51.5010 cc         1 WIV      -0.204100
     10 C21          2.1390    -5.3970   -48.9200 ca         1 WIV      -0.096000
     11 C23          4.0300    -5.4130   -42.7080 ca         1 WIV       0.425300
     12 C24          5.3740    -5.9650   -42.4430 cx         1 WIV      -0.210000
     13 N4           1.5120    -3.3840   -41.2830 na         1 WIV      -0.028100
     14 N5           0.3330    -3.1240   -41.8580 nd         1 WIV      -0.510100
     15 O10          0.1570    -5.6630   -45.4510 o          1 WIV      -0.565100
     16 N11          2.1430    -5.7590   -46.5510 ns         1 WIV      -0.152000
     17 C13          0.7290    -7.1530   -47.9930 ca         1 WIV      -0.093000
     18 C14          0.2670    -7.5240   -49.2220 ca         1 WIV      -0.066000
     19 N16          0.4380    -7.0170   -51.6420 nc         1 WIV      -0.284400
     20 N17          1.1630    -6.1150   -52.2880 na         1 WIV       0.152500
     21 C20          1.6850    -5.7770   -50.1990 ca         1 WIV      -0.131000
     22 C22          3.3790    -5.7320   -43.9250 ca         1 WIV      -0.180000
     23 C25          5.7640    -6.3360   -41.0350 cx         1 WIV      -0.104900
     24 C26          6.3800    -5.1460   -41.6750 cx         1 WIV      -0.104900
     25 N27          3.4830    -4.6410   -41.7880 nb         1 WIV      -0.684000
     26 C28          2.2680    -4.1860   -42.0650 ca         1 WIV       0.375500
     27 H1           2.1140    -0.9430   -39.0150 hc         1 WIV       0.048367
     28 H2           2.4470    -0.9140   -40.7460 hc         1 WIV       0.048367
     29 H3           0.7770    -0.9690   -40.1640 hc         1 WIV       0.048367
     30 H4           2.8720    -3.1660   -39.7920 h1         1 WIV       0.076700
     31 H5           1.2550    -3.0970   -37.9160 hc         1 WIV       0.048367
     32 H6          -0.0940    -3.1630   -39.0500 hc         1 WIV       0.048367
     33 H7           1.0070    -4.5400   -38.9000 hc         1 WIV       0.048367
     34 H8          -0.5590    -3.6690   -43.6520 h4         1 WIV       0.068800
     35 H9           0.0490    -5.8200   -54.0240 h1         1 WIV       0.062033
     36 H10          1.7240    -5.2430   -54.0830 h1         1 WIV       0.062033
     37 H11          1.3830    -6.9810   -54.1720 h1         1 WIV       0.062033
     38 H12          2.5610    -4.5740   -51.9000 h4         1 WIV       0.226000
     39 H13          2.8490    -4.5880   -48.7940 ha         1 WIV       0.114000
     40 H14          5.7670    -6.5920   -43.2340 hc         1 WIV       0.085700
     41 H15          3.1090    -5.4730   -46.4940 hn         1 WIV       0.155000
     42 H16          0.3980    -7.6960   -47.1190 ha         1 WIV       0.130000
     43 H17         -0.4360    -8.3410   -49.3260 ha         1 WIV       0.130000
     44 H18          3.8900    -6.3890   -44.6180 ha         1 WIV       0.126000
     45 H19          5.0220    -6.1720   -40.2640 hc         1 WIV       0.078700
     46 H20          6.3640    -7.2280   -40.9100 hc         1 WIV       0.078700
     47 H21          7.4110    -5.2040   -41.9980 hc         1 WIV       0.078700
     48 H22          6.0610    -4.1670   -41.3410 hc         1 WIV       0.078700
     49 C9           1.3710    -5.5770   -45.4550 c          1 WIV       0.614700
     50 C18          1.0730    -6.0370   -53.7280 c3         1 WIV       0.060900
@<TRIPOS>BOND
     1     1     2 1   
     2     1    27 1   
     3     1    28 1   
     4     1    29 1   
     5     2     3 1   
     6     2    13 1   
     7     2    30 1   
     8     3    31 1   
     9     3    32 1   
    10     3    33 1   
    11     4     5 1   
    12     4    14 2   
    13     4    34 1   
    14     5     6 ar  
    15     5    26 ar  
    16     6    22 ar  
    17     6    49 1   
    18     7    10 ar  
    19     7    16 1   
    20     7    17 ar  
    21     8    18 ar  
    22     8    19 2   
    23     8    21 ar  
    24     9    20 1   
    25     9    21 2   
    26     9    38 1   
    27    10    21 ar  
    28    10    39 1   
    29    11    12 1   
    30    11    22 ar  
    31    11    25 ar  
    32    12    23 1   
    33    12    24 1   
    34    12    40 1   
    35    13    14 1   
    36    13    26 1   
    37    15    49 2   
    38    16    41 1   
    39    16    49 1   
    40    17    18 ar  
    41    17    42 1   
    42    18    43 1   
    43    19    20 1   
    44    20    50 1   
    45    22    44 1   
    46    23    24 1   
    47    23    45 1   
    48    23    46 1   
    49    24    47 1   
    50    24    48 1   
    51    25    26 ar  
    52    35    50 1   
    53    36    50 1   
    54    37    50 1   
@<TRIPOS>SUBSTRUCTURE
     1 WIV         1 TEMP              0 ****  ****    0 ROOT
