@<TRIPOS>MOLECULE
WIV
   50    54     1     0     0
SMALL
No Charge or Current Charge


@<TRIPOS>ATOM
      1 C1           1.3630    -1.7300   -39.0990 c3         1 WIV      -0.104100
      2 C2           1.7130    -3.1950   -39.4450 c3         1 WIV       0.113300
      3 C3           1.1700    -4.1800   -38.3870 c3         1 WIV      -0.104100
      4 C6           0.0090    -3.9400   -42.4790 cc         1 WIV       0.378800
      5 C7           1.3690    -4.1870   -42.9050 ca         1 WIV      -0.237900
      6 C8           1.8990    -4.6010   -44.1480 ca         1 WIV      -0.037600
      7 C12          1.2750    -5.6290   -47.8210 ca         1 WIV      -0.052000
      8 C15          0.5620    -6.3360   -50.4570 ca         1 WIV      -0.073000
      9 C19          2.6200    -6.8250   -51.1540 cc         1 WIV      -0.204100
     10 C21          2.2640    -6.0410   -48.7410 ca         1 WIV      -0.096000
     11 C23          4.0600    -4.4580   -42.9990 ca         1 WIV       0.425300
     12 C24          5.5560    -4.5870   -42.9990 cx         1 WIV      -0.210000
     13 N4           1.2760    -3.5590   -40.8130 na         1 WIV      -0.028100
     14 N5          -0.0630    -3.5550   -41.1990 nd         1 WIV      -0.510100
     15 O10         -0.1940    -4.7570   -45.3220 o          1 WIV      -0.565100
     16 N11          1.7080    -5.2850   -46.5080 ns         1 WIV      -0.152000
     17 C13         -0.0820    -5.5740   -48.2460 ca         1 WIV      -0.093000
     18 C14         -0.4410    -5.9280   -49.5660 ca         1 WIV      -0.066000
     19 N16          0.3960    -6.7200   -51.7900 nc         1 WIV      -0.284400
     20 N17          1.7060    -7.0160   -52.1830 na         1 WIV       0.152500
     21 C20          1.8640    -6.3830   -50.0370 ca         1 WIV      -0.131000
     22 C22          3.3110    -4.7320   -44.1640 ca         1 WIV      -0.180000
     23 C25          6.2520    -5.8410   -43.4850 cx         1 WIV      -0.104900
     24 C26          6.2890    -5.4810   -42.0200 cx         1 WIV      -0.104900
     25 N27          3.5010    -4.0590   -41.8350 nb         1 WIV      -0.684000
     26 C28          2.1600    -3.9350   -41.8160 ca         1 WIV       0.375500
     27 H1           1.7640    -1.4600   -38.1150 hc         1 WIV       0.048367
     28 H2           1.7950    -1.0480   -39.8410 hc         1 WIV       0.048367
     29 H3           0.2770    -1.5790   -39.0810 hc         1 WIV       0.048367
     30 H4           2.8080    -3.2730   -39.4170 h1         1 WIV       0.076700
     31 H5           1.5670    -3.9380   -37.3940 hc         1 WIV       0.048367
     32 H6           0.0750    -4.1410   -38.3380 hc         1 WIV       0.048367
     33 H7           1.4670    -5.2070   -38.6310 hc         1 WIV       0.048367
     34 H8          -0.9280    -4.0160   -43.0130 h4         1 WIV       0.068800
     35 H9           1.6970    -6.6880   -54.2620 h1         1 WIV       0.062033
     36 H10          3.0580    -7.6800   -53.6580 h1         1 WIV       0.062033
     37 H11          1.4160    -8.3830   -53.7570 h1         1 WIV       0.062033
     38 H12          3.6780    -7.0120   -51.3000 h4         1 WIV       0.226000
     39 H13          3.3120    -6.0950   -48.4540 ha         1 WIV       0.114000
     40 H14          6.0340    -3.6420   -43.2440 hc         1 WIV       0.085700
     41 H15          2.7090    -5.3470   -46.3860 hn         1 WIV       0.155000
     42 H16         -0.8730    -5.2590   -47.5750 ha         1 WIV       0.130000
     43 H17         -1.4790    -5.8850   -49.8850 ha         1 WIV       0.130000
     44 H18          3.8450    -5.0390   -45.0580 ha         1 WIV       0.126000
     45 H19          5.6380    -6.6900   -43.7790 hc         1 WIV       0.078700
     46 H20          7.1680    -5.7240   -44.0600 hc         1 WIV       0.078700
     47 H21          7.2280    -5.1190   -41.6080 hc         1 WIV       0.078700
     48 H22          5.6960    -6.0840   -41.3360 hc         1 WIV       0.078700
     49 C9           1.0240    -4.8820   -45.3650 c          1 WIV       0.614700
     50 C18          1.9870    -7.4700   -53.5500 c3         1 WIV       0.060900
@<TRIPOS>BOND
     1     1     2 1   
     2     1    27 1   
     3     1    28 1   
     4     1    29 1   
     5     2     3 1   
     6     2    13 1   
     7     2    30 1   
     8     3    31 1   
     9     3    32 1   
    10     3    33 1   
    11     4     5 1   
    12     4    14 2   
    13     4    34 1   
    14     5     6 ar  
    15     5    26 ar  
    16     6    22 ar  
    17     6    49 1   
    18     7    10 ar  
    19     7    16 1   
    20     7    17 ar  
    21     8    18 ar  
    22     8    19 2   
    23     8    21 ar  
    24     9    20 1   
    25     9    21 2   
    26     9    38 1   
    27    10    21 ar  
    28    10    39 1   
    29    11    12 1   
    30    11    22 ar  
    31    11    25 ar  
    32    12    23 1   
    33    12    24 1   
    34    12    40 1   
    35    13    14 1   
    36    13    26 1   
    37    15    49 2   
    38    16    41 1   
    39    16    49 1   
    40    17    18 ar  
    41    17    42 1   
    42    18    43 1   
    43    19    20 1   
    44    20    50 1   
    45    22    44 1   
    46    23    24 1   
    47    23    45 1   
    48    23    46 1   
    49    24    47 1   
    50    24    48 1   
    51    25    26 ar  
    52    35    50 1   
    53    36    50 1   
    54    37    50 1   
@<TRIPOS>SUBSTRUCTURE
     1 WIV         1 TEMP              0 ****  ****    0 ROOT
