@<TRIPOS>MOLECULE
WIY
   15    14     1     0     0
SMALL
abcg2


@<TRIPOS>ATOM
      1 C4         116.5500   122.4470   130.9690 c3         1 WIY       0.157600
      2 C1         118.3720   122.9110   128.3230 c3         1 WIY       0.283000
      3 C2         118.7490   122.2560   129.6250 c3         1 WIY      -0.136400
      4 C3         117.6090   121.5450   130.3590 c3         1 WIY      -0.070400
      5 O1         117.1810   123.3260   131.9080 oh         1 WIY      -0.673000
      6 F1         119.4690   123.3470   127.6550 f          1 WIY      -0.120333
      7 F2         117.7240   122.0710   127.4810 f          1 WIY      -0.120333
      8 F3         117.5700   123.9930   128.4760 f          1 WIY      -0.120333
      9 H5         116.0360   123.0260   130.1960 h1         1 WIY       0.030700
     10 H6         115.8050   121.8230   131.4740 h1         1 WIY       0.030700
     11 H1         119.5310   121.5350   129.3810 hc         1 WIY       0.084700
     12 H2         119.1960   123.0290   130.2520 hc         1 WIY       0.084700
     13 H3         117.1170   120.8370   129.6890 hc         1 WIY       0.060700
     14 H4         118.0620   120.9550   131.1600 hc         1 WIY       0.060700
     15 H7         116.5190   123.9470   132.2340 ho         1 WIY       0.446000
@<TRIPOS>BOND
     1     1     4 1   
     2     1     5 1   
     3     1     9 1   
     4     1    10 1   
     5     2     3 1   
     6     2     6 1   
     7     2     7 1   
     8     2     8 1   
     9     3     4 1   
    10     3    11 1   
    11     3    12 1   
    12     4    13 1   
    13     4    14 1   
    14     5    15 1   
@<TRIPOS>SUBSTRUCTURE
     1 WIY         1 TEMP              0 ****  ****    0 ROOT
