@<TRIPOS>MOLECULE
WIY
   15    14     1     0     0
SMALL
No Charge or Current Charge


@<TRIPOS>ATOM
      1 C4         116.5490   122.4600   130.9740 c3         1 WIY       0.157600
      2 C1         118.3680   122.9490   128.2830 c3         1 WIY       0.283000
      3 C2         118.7800   122.2360   129.5950 c3         1 WIY      -0.136400
      4 C3         117.6380   121.5330   130.3860 c3         1 WIY      -0.070400
      5 O1         117.1280   123.3810   131.9070 oh         1 WIY      -0.673000
      6 F1         119.4650   123.3420   127.5980 f          1 WIY      -0.120333
      7 F2         117.6540   122.1260   127.4810 f          1 WIY      -0.120333
      8 F3         117.6230   124.0500   128.5250 f          1 WIY      -0.120333
      9 H5         116.0390   122.9970   130.1640 h1         1 WIY       0.030700
     10 H6         115.7950   121.8400   131.4780 h1         1 WIY       0.030700
     11 H1         119.5330   121.4790   129.3440 hc         1 WIY       0.084700
     12 H2         119.2850   122.9600   130.2460 hc         1 WIY       0.084700
     13 H3         117.1530   120.7930   129.7380 hc         1 WIY       0.060700
     14 H4         118.0850   120.9640   131.2100 hc         1 WIY       0.060700
     15 H7         116.3950   123.9380   132.2530 ho         1 WIY       0.446000
@<TRIPOS>BOND
     1     1     4 1   
     2     1     5 1   
     3     1     9 1   
     4     1    10 1   
     5     2     3 1   
     6     2     6 1   
     7     2     7 1   
     8     2     8 1   
     9     3     4 1   
    10     3    11 1   
    11     3    12 1   
    12     4    13 1   
    13     4    14 1   
    14     5    15 1   
@<TRIPOS>SUBSTRUCTURE
     1 WIY         1 TEMP              0 ****  ****    0 ROOT
