@<TRIPOS>MOLECULE
WJ1
   20    20     1     0     0
SMALL
No Charge or Current Charge


@<TRIPOS>ATOM
      1 O2           3.3820     1.2920    -0.7680 o          1 WJ1      -0.707500
      2 C9           2.7500     0.6140     0.0330 c          1 WJ1       0.726000
      3 O1           3.2210     0.2220     1.0940 o          1 WJ1      -0.707500
      4 C8           1.2780     0.2430    -0.3230 c3         1 WJ1       0.028300
      5 Cl1          1.1240    -1.4610    -0.9910 cl         1 WJ1      -0.354000
      6 C7           0.3050     0.4510     0.8660 c3         1 WJ1      -0.041100
      7 C6          -1.1620     0.3180     0.4690 ca         1 WJ1      -0.049300
      8 C1          -1.9130    -0.8040     0.8720 ca         1 WJ1      -0.106000
      9 C5          -1.7800     1.3240    -0.3000 ca         1 WJ1      -0.106000
     10 C4          -3.1330     1.2070    -0.6660 ca         1 WJ1      -0.121500
     11 C3          -3.8760     0.0850    -0.2630 ca         1 WJ1      -0.135000
     12 C2          -3.2660    -0.9200     0.5060 ca         1 WJ1      -0.121500
     13 H2           0.9710     0.9110    -1.1370 h1         1 WJ1       0.048700
     14 H3           0.5540    -0.2590     1.6640 hc         1 WJ1       0.065200
     15 H4           0.4750     1.4500     1.2880 hc         1 WJ1       0.065200
     16 H5          -1.4490    -1.5880     1.4650 ha         1 WJ1       0.116000
     17 H6          -1.2130     2.1970    -0.6150 ha         1 WJ1       0.116000
     18 H7          -3.6040     1.9860    -1.2600 ha         1 WJ1       0.095500
     19 H8          -4.9220    -0.0050    -0.5460 ha         1 WJ1       0.092000
     20 H9          -3.8400    -1.7890     0.8180 ha         1 WJ1       0.095500
@<TRIPOS>BOND
     1     1     2 1   
     2     2     3 1   
     3     2     4 1   
     4     4     5 1   
     5     4     6 1   
     6     4    13 1   
     7     6     7 1   
     8     6    14 1   
     9     6    15 1   
    10     7     8 ar  
    11     7     9 ar  
    12     8    12 ar  
    13     8    16 1   
    14     9    10 ar  
    15     9    17 1   
    16    10    11 ar  
    17    10    18 1   
    18    11    12 ar  
    19    11    19 1   
    20    12    20 1   
@<TRIPOS>SUBSTRUCTURE
     1 WJ1         1 TEMP              0 ****  ****    0 ROOT
