@<TRIPOS>MOLECULE
WJ1
   20    20     1     0     0
SMALL
abcg2


@<TRIPOS>ATOM
      1 O2           2.8270     1.7830     0.2060 o          1 WJ1      -0.707500
      2 C9           2.7160     0.5530     0.0400 c          1 WJ1       0.726000
      3 O1           3.5930    -0.3150     0.0930 o          1 WJ1      -0.707500
      4 C8           1.2560     0.1350    -0.2750 c3         1 WJ1       0.028300
      5 CL1          1.1050    -1.6330    -0.5950 cl         1 WJ1      -0.354000
      6 C7           0.2930     0.5300     0.8410 c3         1 WJ1      -0.041100
      7 C6          -1.1530     0.3680     0.4650 ca         1 WJ1      -0.049300
      8 C1          -1.8970    -0.7310     0.8840 ca         1 WJ1      -0.106000
      9 C5          -1.7720     1.3230    -0.3390 ca         1 WJ1      -0.106000
     10 C4          -3.1010     1.1880    -0.7150 ca         1 WJ1      -0.121500
     11 C3          -3.8350     0.0870    -0.2880 ca         1 WJ1      -0.135000
     12 C2          -3.2290    -0.8710     0.5130 ca         1 WJ1      -0.121500
     13 H2           0.9460     0.6260    -1.2010 h1         1 WJ1       0.048700
     14 H3           0.5280    -0.0440     1.7400 hc         1 WJ1       0.065200
     15 H4           0.4930     1.5780     1.0660 hc         1 WJ1       0.065200
     16 H5          -1.4300    -1.4840     1.5080 ha         1 WJ1       0.116000
     17 H6          -1.2070     2.1860    -0.6760 ha         1 WJ1       0.116000
     18 H7          -3.5640     1.9440    -1.3350 ha         1 WJ1       0.095500
     19 H8          -4.8720    -0.0210    -0.5780 ha         1 WJ1       0.092000
     20 H9          -3.7950    -1.7290     0.8520 ha         1 WJ1       0.095500
@<TRIPOS>BOND
     1     1     2 1   
     2     2     3 1   
     3     2     4 1   
     4     4     5 1   
     5     4     6 1   
     6     4    13 1   
     7     6     7 1   
     8     6    14 1   
     9     6    15 1   
    10     7     8 ar  
    11     7     9 ar  
    12     8    12 ar  
    13     8    16 1   
    14     9    10 ar  
    15     9    17 1   
    16    10    11 ar  
    17    10    18 1   
    18    11    12 ar  
    19    11    19 1   
    20    12    20 1   
@<TRIPOS>SUBSTRUCTURE
     1 WJ1         1 TEMP              0 ****  ****    0 ROOT
