@<TRIPOS>MOLECULE
WJ2
   20    20     1     0     0
SMALL
No Charge or Current Charge


@<TRIPOS>ATOM
      1 Cl1          1.1400    -1.4510     0.9390 cl         1 WJ2      -0.355000
      2 C02          1.2740     0.2630     0.2920 c3         1 WJ2       0.031300
      3 C03          2.7370     0.6490    -0.0780 c          1 WJ2       0.724000
      4 O04          3.3740     1.3250     0.7210 o          1 WJ2      -0.708000
      5 O05          3.1990     0.2700    -1.1480 o          1 WJ2      -0.708000
      6 C06          0.2840     0.4800    -0.8820 c3         1 WJ2      -0.040100
      7 C07         -1.1770     0.3320    -0.4670 ca         1 WJ2      -0.049300
      8 C08         -1.9260    -0.7910    -0.8730 ca         1 WJ2      -0.105000
      9 C09         -3.2730    -0.9210    -0.4910 ca         1 WJ2      -0.121500
     10 C10         -3.8800     0.0700     0.2980 ca         1 WJ2      -0.134000
     11 C11         -3.1390     1.1920     0.7040 ca         1 WJ2      -0.121500
     12 C12         -1.7930     1.3230     0.3230 ca         1 WJ2      -0.105000
     13 H1           0.9730     0.9180     1.1190 h1         1 WJ2       0.050700
     14 H3           0.4410     1.4850    -1.2920 hc         1 WJ2       0.063200
     15 H4           0.5270    -0.2180    -1.6920 hc         1 WJ2       0.063200
     16 H5          -1.4640    -1.5650    -1.4820 ha         1 WJ2       0.115500
     17 H6          -3.8450    -1.7910    -0.8060 ha         1 WJ2       0.096000
     18 H7          -4.9210    -0.0310     0.5930 ha         1 WJ2       0.093000
     19 H8          -3.6080     1.9610     1.3140 ha         1 WJ2       0.096000
     20 H9          -1.2270     2.1970     0.6400 ha         1 WJ2       0.115500
@<TRIPOS>BOND
     1     1     2 1   
     2     2     3 1   
     3     2     6 1   
     4     2    13 1   
     5     3     4 1   
     6     3     5 1   
     7     6     7 1   
     8     6    14 1   
     9     6    15 1   
    10     7     8 ar  
    11     7    12 ar  
    12     8     9 ar  
    13     8    16 1   
    14     9    10 ar  
    15     9    17 1   
    16    10    11 ar  
    17    10    18 1   
    18    11    12 ar  
    19    11    19 1   
    20    12    20 1   
@<TRIPOS>SUBSTRUCTURE
     1 WJ2         1 TEMP              0 ****  ****    0 ROOT
