@<TRIPOS>MOLECULE
WJ2
   20    20     1     0     0
SMALL
abcg2


@<TRIPOS>ATOM
      1 CL1          1.0740    -1.5680     0.6390 cl         1 WJ2      -0.355000
      2 C02          1.2490     0.1910     0.2710 c3         1 WJ2       0.031300
      3 C03          2.7050     0.5600    -0.1100 c          1 WJ2       0.724000
      4 O04          2.8970     1.7920    -0.1140 o          1 WJ2      -0.708000
      5 O05          3.5020    -0.3430    -0.3890 o          1 WJ2      -0.708000
      6 C06          0.2740     0.5710    -0.8410 c3         1 WJ2      -0.040100
      7 C07         -1.1680     0.3910    -0.4590 ca         1 WJ2      -0.049300
      8 C08         -1.9000    -0.7120    -0.8880 ca         1 WJ2      -0.105000
      9 C09         -3.2260    -0.8790    -0.5080 ca         1 WJ2      -0.121500
     10 C10         -3.8380     0.0560     0.3160 ca         1 WJ2      -0.134000
     11 C11         -3.1170     1.1620     0.7510 ca         1 WJ2      -0.121500
     12 C12         -1.7940     1.3250     0.3640 ca         1 WJ2      -0.105000
     13 H1           0.9740     0.7090     1.1910 h1         1 WJ2       0.050700
     14 H3           0.4620     1.6200    -1.0790 hc         1 WJ2       0.063200
     15 H4           0.5090    -0.0070    -1.7380 hc         1 WJ2       0.063200
     16 H5          -1.4280    -1.4490    -1.5260 ha         1 WJ2       0.115500
     17 H6          -3.7800    -1.7420    -0.8550 ha         1 WJ2       0.096000
     18 H7          -4.8700    -0.0730     0.6150 ha         1 WJ2       0.093000
     19 H8          -3.5870     1.8990     1.3900 ha         1 WJ2       0.096000
     20 H9          -1.2420     2.1950     0.7040 ha         1 WJ2       0.115500
@<TRIPOS>BOND
     1     1     2 1   
     2     2     3 1   
     3     2     6 1   
     4     2    13 1   
     5     3     4 1   
     6     3     5 1   
     7     6     7 1   
     8     6    14 1   
     9     6    15 1   
    10     7     8 ar  
    11     7    12 ar  
    12     8     9 ar  
    13     8    16 1   
    14     9    10 ar  
    15     9    17 1   
    16    10    11 ar  
    17    10    18 1   
    18    11    12 ar  
    19    11    19 1   
    20    12    20 1   
@<TRIPOS>SUBSTRUCTURE
     1 WJ2         1 TEMP              0 ****  ****    0 ROOT
