@<TRIPOS>MOLECULE
WJ3
   23    23     1     0     0
SMALL
abcg2


@<TRIPOS>ATOM
      1 C01          4.7010     7.7420    22.1370 c3         1 WJ3       0.124300
      2 C02          3.9850     7.2430    23.4250 c3         1 WJ3       0.293500
      3 C04          3.8540     7.4160    20.9050 ca         1 WJ3      -0.176300
      4 C05          2.3020     6.9150    18.6050 ca         1 WJ3       0.186100
      5 C06          2.4400     8.2050    19.1230 ca         1 WJ3       0.050000
      6 C07          2.9540     5.8840    19.2900 ca         1 WJ3       0.050000
      7 C03          6.1340     7.1270    22.0120 c3         1 WJ3       0.293500
      8 C08          3.1980     8.4550    20.2530 ca         1 WJ3      -0.026000
      9 C09          3.7170     6.1160    20.4200 ca         1 WJ3      -0.026000
     10 O10          4.8500     9.1160    22.3590 oh         1 WJ3      -0.619000
     11 F11          6.1460     5.7850    22.0460 f          1 WJ3      -0.094333
     12 F12          6.6750     7.5120    20.8410 f          1 WJ3      -0.094333
     13 F13          6.9440     7.5600    22.9860 f          1 WJ3      -0.094333
     14 F14          4.6840     7.5280    24.5340 f          1 WJ3      -0.094333
     15 F15          2.7910     7.8420    23.5360 f          1 WJ3      -0.094333
     16 F16          3.7770     5.9170    23.4050 f          1 WJ3      -0.094333
     17 CL17         2.7890     4.2600    18.6750 cl         1 WJ3      -0.173500
     18 CL18         1.6370     9.5230    18.3200 cl         1 WJ3      -0.173500
     19 O19          1.5650     6.7220    17.5000 oh         1 WJ3      -0.500100
     20 H20          3.2650     9.4680    20.6190 ha         1 WJ3       0.149000
     21 H21          4.1900     5.2760    20.9010 ha         1 WJ3       0.149000
     22 H22          5.2530     9.5400    21.5880 ho         1 WJ3       0.479000
     23 H23          1.5740     5.7820    17.2550 ho         1 WJ3       0.487000
@<TRIPOS>BOND
     1     1     2 1   
     2     1     3 1   
     3     1     7 1   
     4     1    10 1   
     5     2    14 1   
     6     2    15 1   
     7     2    16 1   
     8     3     8 ar  
     9     3     9 ar  
    10     4     5 ar  
    11     4     6 ar  
    12     4    19 1   
    13     5     8 ar  
    14     5    18 1   
    15     6     9 ar  
    16     6    17 1   
    17     7    11 1   
    18     7    12 1   
    19     7    13 1   
    20     8    20 1   
    21     9    21 1   
    22    10    22 1   
    23    19    23 1   
@<TRIPOS>SUBSTRUCTURE
     1 WJ3         1 TEMP              0 ****  ****    0 ROOT
