@<TRIPOS>MOLECULE
WJ3
   23    23     1     0     0
SMALL
No Charge or Current Charge


@<TRIPOS>ATOM
      1 C01          4.7810     7.7320    22.1280 c3         1 WJ3       0.124300
      2 C02          3.9110     7.5170    23.4300 c3         1 WJ3       0.293500
      3 C04          3.9060     7.4280    20.8740 ca         1 WJ3      -0.176300
      4 C05          2.2360     6.9310    18.6130 ca         1 WJ3       0.186100
      5 C06          2.1530     8.1560    19.3050 ca         1 WJ3       0.050000
      6 C07          3.1450     5.9530    19.0590 ca         1 WJ3       0.050000
      7 C03          6.1320     6.8990    22.1950 c3         1 WJ3       0.293500
      8 C08          2.9740     8.3960    20.4190 ca         1 WJ3      -0.026000
      9 C09          3.9650     6.1950    20.1750 ca         1 WJ3      -0.026000
     10 O10          5.1500     9.1310    22.0430 oh         1 WJ3      -0.619000
     11 F11          5.9300     5.5970    22.5040 f          1 WJ3      -0.094333
     12 F12          6.7870     6.9430    21.0110 f          1 WJ3      -0.094333
     13 F13          6.9780     7.3980    23.1290 f          1 WJ3      -0.094333
     14 F14          4.6200     7.7500    24.5600 f          1 WJ3      -0.094333
     15 F15          2.8420     8.3490    23.4540 f          1 WJ3      -0.094333
     16 F16          3.4310     6.2530    23.5030 f          1 WJ3      -0.094333
     17 Cl17         3.2700     4.4000    18.2280 cl         1 WJ3      -0.173500
     18 Cl18         1.0200     9.4100    18.7950 cl         1 WJ3      -0.173500
     19 O19          1.4360     6.6910    17.5240 oh         1 WJ3      -0.500100
     20 H20          2.8730     9.3490    20.9340 ha         1 WJ3       0.149000
     21 H21          4.6370     5.3990    20.4790 ha         1 WJ3       0.149000
     22 H22          5.6080     9.2630    21.1840 ho         1 WJ3       0.479000
     23 H23          1.6390     5.7920    17.1890 ho         1 WJ3       0.487000
@<TRIPOS>BOND
     1     1     2 1   
     2     1     3 1   
     3     1     7 1   
     4     1    10 1   
     5     2    14 1   
     6     2    15 1   
     7     2    16 1   
     8     3     8 ar  
     9     3     9 ar  
    10     4     5 ar  
    11     4     6 ar  
    12     4    19 1   
    13     5     8 ar  
    14     5    18 1   
    15     6     9 ar  
    16     6    17 1   
    17     7    11 1   
    18     7    12 1   
    19     7    13 1   
    20     8    20 1   
    21     9    21 1   
    22    10    22 1   
    23    19    23 1   
@<TRIPOS>SUBSTRUCTURE
     1 WJ3         1 TEMP              0 ****  ****    0 ROOT
