@<TRIPOS>MOLECULE
WJ4
   23    24     1     0     0
SMALL
No Charge or Current Charge


@<TRIPOS>ATOM
      1 N1           5.0730    -5.1000   -19.0100 nc         1 WJ4      -0.297000
      2 C4           7.2450     0.4830   -18.6890 c6         1 WJ4       0.155100
      3 C5           7.5740    -0.9840   -20.5750 c6         1 WJ4       0.155100
      4 C6           6.9090    -2.1760   -19.8090 c6         1 WJ4       0.138800
      5 N            4.2540    -5.8340   -19.7310 nd         1 WJ4      -0.143100
      6 C            3.3300    -3.6230   -19.3040 cd         1 WJ4      -0.053000
      7 O            7.0680     0.2930   -20.1140 os         1 WJ4      -0.436000
      8 C1           4.5660    -3.8430   -18.7610 cc         1 WJ4       0.226300
      9 C2           5.3760    -2.8550   -17.9450 c3         1 WJ4       0.156500
     10 C3           6.5920    -0.6780   -17.8660 c6         1 WJ4       0.138800
     11 N2           5.9700    -1.7330   -18.7270 n3         1 WJ4      -0.726600
     12 S            2.8300    -5.0570   -20.1490 ss         1 WJ4       0.311100
     13 Cl           2.3710    -2.1780   -19.2040 cl         1 WJ4      -0.084000
     14 H4           8.3200     0.5370   -18.4640 h1         1 WJ4       0.045950
     15 H6           7.3760    -1.0770   -21.6520 h1         1 WJ4       0.045950
     16 H7           8.6640    -1.0110   -20.4290 h1         1 WJ4       0.045950
     17 H8           6.3780    -2.8030   -20.5390 h1         1 WJ4       0.040950
     18 H9           7.7090    -2.8000   -19.3830 h1         1 WJ4       0.040950
     19 H1           4.7110    -2.4500   -17.1700 h1         1 WJ4       0.054700
     20 H            6.1700    -3.4040   -17.4190 h1         1 WJ4       0.054700
     21 H3           5.8360    -0.2480   -17.1920 h1         1 WJ4       0.040950
     22 H2           7.3670    -1.1230   -17.2250 h1         1 WJ4       0.040950
     23 H5           6.7930     1.4430   -18.4010 h1         1 WJ4       0.045950
@<TRIPOS>BOND
     1     1     5 2   
     2     1     8 1   
     3     2     7 1   
     4     2    10 1   
     5     2    14 1   
     6     2    23 1   
     7     3     4 1   
     8     3     7 1   
     9     3    15 1   
    10     3    16 1   
    11     4    11 1   
    12     4    17 1   
    13     4    18 1   
    14     5    12 1   
    15     6     8 2   
    16     6    12 1   
    17     6    13 1   
    18     8     9 1   
    19     9    11 1   
    20     9    19 1   
    21     9    20 1   
    22    10    11 1   
    23    10    21 1   
    24    10    22 1   
@<TRIPOS>SUBSTRUCTURE
     1 WJ4         1 TEMP              0 ****  ****    0 ROOT
