@<TRIPOS>MOLECULE
WJ4
   23    24     1     0     0
SMALL
bcc


@<TRIPOS>ATOM
      1 N1           4.8990    -5.0540   -19.0450 nc         1 WJ4      -0.297000
      2 C4           6.8400     0.4560   -18.8440 c6         1 WJ4       0.131900
      3 C5           7.7350    -1.0850   -20.3550 c6         1 WJ4       0.131900
      4 C6           6.8960    -2.2580   -19.8430 c6         1 WJ4       0.138800
      5 N            4.0140    -5.6540   -19.7300 nd         1 WJ4      -0.143100
      6 C            3.4150    -3.3630   -19.2350 cd         1 WJ4      -0.065000
      7 O            7.0420     0.1290   -20.2050 os         1 WJ4      -0.389600
      8 C1           4.6220    -3.7660   -18.7320 cc         1 WJ4       0.291600
      9 C2           5.5700    -2.9240   -17.9410 c3         1 WJ4       0.156500
     10 C3           6.7100    -0.7870   -17.9630 c6         1 WJ4       0.138800
     11 N2           6.0620    -1.8230   -18.7330 n3         1 WJ4      -0.726600
     12 S            2.7100    -4.6560   -20.0720 ss         1 WJ4       0.166200
     13 CL           2.6980    -1.8430   -19.0580 cl         1 WJ4       0.007600
     14 H4           7.6560     1.0870   -18.4670 h1         1 WJ4       0.045950
     15 H6           7.9520    -1.2150   -21.4160 h1         1 WJ4       0.045950
     16 H7           8.7010    -1.0500   -19.8350 h1         1 WJ4       0.045950
     17 H8           6.2580    -2.6510   -20.6400 h1         1 WJ4       0.040950
     18 H9           7.5810    -3.0720   -19.5560 h1         1 WJ4       0.040950
     19 H1           5.0440    -2.5190   -17.0720 h1         1 WJ4       0.054700
     20 H            6.3710    -3.5740   -17.5550 h1         1 WJ4       0.054700
     21 H3           6.0980    -0.5390   -17.0950 h1         1 WJ4       0.040950
     22 H2           7.6910    -1.1020   -17.5690 h1         1 WJ4       0.040950
     23 H5           5.9200     1.0420   -18.7980 h1         1 WJ4       0.045950
@<TRIPOS>BOND
     1     1     5 2   
     2     1     8 1   
     3     2     7 1   
     4     2    10 1   
     5     2    14 1   
     6     2    23 1   
     7     3     4 1   
     8     3     7 1   
     9     3    15 1   
    10     3    16 1   
    11     4    11 1   
    12     4    17 1   
    13     4    18 1   
    14     5    12 1   
    15     6     8 2   
    16     6    12 1   
    17     6    13 1   
    18     8     9 1   
    19     9    11 1   
    20     9    19 1   
    21     9    20 1   
    22    10    11 1   
    23    10    21 1   
    24    10    22 1   
@<TRIPOS>SUBSTRUCTURE
     1 WJ4         1 TEMP              0 ****  ****    0 ROOT
