@<TRIPOS>MOLECULE
WJ5
   53    56     1     0     0
SMALL
abcg2


@<TRIPOS>ATOM
      1 C10          7.8200     1.4190    -3.3190 c5         1 WJ5       0.191800
      2 C11          9.2780     1.4610    -2.8670 c5         1 WJ5      -0.073700
      3 C13         11.4200     4.2960    -1.8810 c          1 WJ5       0.653100
      4 C15         11.1430     6.9600    -0.0840 ca         1 WJ5      -0.089300
      5 C17         11.1510     9.3650     0.3080 ca         1 WJ5      -0.095000
      6 C18         10.0150     9.4870    -0.4750 ca         1 WJ5       0.123000
      7 C20          9.9990     7.1300    -0.8550 ca         1 WJ5      -0.083000
      8 C1          10.0910     1.7620    -4.1520 c5         1 WJ5      -0.073700
      9 C2           9.0530     1.8270    -5.2680 c5         1 WJ5       0.191800
     10 N1           7.8550     2.2350    -4.5330 n3         1 WJ5      -0.716500
     11 S1           6.4590     2.5050    -5.3660 sy         1 WJ5       1.156600
     12 C3           5.9750     0.9380    -6.0270 ca         1 WJ5      -0.316500
     13 C4           5.1570     0.0980    -5.2810 ca         1 WJ5      -0.013000
     14 C5           4.8410    -1.1560    -5.7770 ca         1 WJ5      -0.133500
     15 C6           5.3310    -1.5900    -7.0090 ca         1 WJ5      -0.017300
     16 C7           5.0120    -2.9620    -7.5180 c3         1 WJ5      -0.058800
     17 C8           6.1390    -0.7250    -7.7430 ca         1 WJ5      -0.133500
     18 C9           6.4650     0.5340    -7.2640 ca         1 WJ5      -0.013000
     19 O1           6.7990     3.3840    -6.4730 o          1 WJ5      -0.532000
     20 O2           5.4670     2.9260    -4.3910 o          1 WJ5      -0.532000
     21 C12          9.5910     2.6060    -1.8970 c5         1 WJ5       0.107500
     22 N2          10.7570     3.2580    -2.4610 n          1 WJ5      -0.415800
     23 N3          11.1460     4.5260    -0.5660 ns         1 WJ5      -0.527900
     24 C14         11.7700     5.6020     0.1450 c3         1 WJ5       0.163300
     25 C16         11.6930     8.1030     0.4890 ca         1 WJ5       0.127000
     26 CL1         13.1120     7.9640     1.4780 cl         1 WJ5      -0.202000
     27 CL2          9.3220    11.0540    -0.7180 cl         1 WJ5      -0.194000
     28 C19          9.4290     8.3770    -1.0590 ca         1 WJ5      -0.097000
     29 O3          12.2360     4.9730    -2.4960 o          1 WJ5      -0.626100
     30 C21         10.7870     3.1010    -3.9010 c5         1 WJ5       0.107500
     31 H1           7.1300     1.8290    -2.5840 h1         1 WJ5       0.062450
     32 H2           7.5180     0.3870    -3.5390 h1         1 WJ5       0.062450
     33 H3           9.5630     0.5070    -2.4260 hc         1 WJ5       0.069700
     34 H4          11.6070    10.2310     0.7660 ha         1 WJ5       0.144000
     35 H5           9.5300     6.2660    -1.3080 ha         1 WJ5       0.121000
     36 H6          10.8230     0.9820    -4.3550 hc         1 WJ5       0.069700
     37 H7           8.9230     0.8410    -5.7290 h1         1 WJ5       0.062450
     38 H8           9.3060     2.5440    -6.0470 h1         1 WJ5       0.062450
     39 H9           4.7580     0.4120    -4.3260 ha         1 WJ5       0.134500
     40 H10          4.1980    -1.8060    -5.1970 ha         1 WJ5       0.118500
     41 H11          5.6980    -3.6960    -7.0910 hc         1 WJ5       0.050700
     42 H12          4.0030    -3.2670    -7.2420 hc         1 WJ5       0.050700
     43 H13          5.1050    -3.0200    -8.6010 hc         1 WJ5       0.050700
     44 H14          6.5190    -1.0350    -8.7090 ha         1 WJ5       0.118500
     45 H15          7.0870     1.1890    -7.8570 ha         1 WJ5       0.134500
     46 H16          8.7430     3.2990    -1.8180 h1         1 WJ5       0.054200
     47 H17          9.7950     2.2180    -0.8980 h1         1 WJ5       0.054200
     48 H18         10.4180     4.0200    -0.0910 hn         1 WJ5       0.313500
     49 H19         11.7290     5.3640     1.2100 h1         1 WJ5       0.072700
     50 H20         12.8290     5.6460    -0.1130 h1         1 WJ5       0.072700
     51 H21          8.5400     8.4770    -1.6660 ha         1 WJ5       0.135000
     52 H22         11.8080     3.1060    -4.2760 h1         1 WJ5       0.054200
     53 H23         10.2480     3.9170    -4.3990 h1         1 WJ5       0.054200
@<TRIPOS>BOND
     1     1     2 1   
     2     1    10 1   
     3     1    31 1   
     4     1    32 1   
     5     2     8 1   
     6     2    21 1   
     7     2    33 1   
     8     3    22 1   
     9     3    23 1   
    10     3    29 2   
    11     4     7 ar  
    12     4    24 1   
    13     4    25 ar  
    14     5     6 ar  
    15     5    25 ar  
    16     5    34 1   
    17     6    27 1   
    18     6    28 ar  
    19     7    28 ar  
    20     7    35 1   
    21     8     9 1   
    22     8    30 1   
    23     8    36 1   
    24     9    10 1   
    25     9    37 1   
    26     9    38 1   
    27    10    11 1   
    28    11    12 1   
    29    11    19 2   
    30    11    20 2   
    31    12    13 ar  
    32    12    18 ar  
    33    13    14 ar  
    34    13    39 1   
    35    14    15 ar  
    36    14    40 1   
    37    15    16 1   
    38    15    17 ar  
    39    16    41 1   
    40    16    42 1   
    41    16    43 1   
    42    17    18 ar  
    43    17    44 1   
    44    18    45 1   
    45    21    22 1   
    46    21    46 1   
    47    21    47 1   
    48    22    30 1   
    49    23    24 1   
    50    23    48 1   
    51    24    49 1   
    52    24    50 1   
    53    25    26 1   
    54    28    51 1   
    55    30    52 1   
    56    30    53 1   
@<TRIPOS>SUBSTRUCTURE
     1 WJ5         1 TEMP              0 ****  ****    0 ROOT
