@<TRIPOS>MOLECULE
WJ5
   53    56     1     0     0
SMALL
No Charge or Current Charge


@<TRIPOS>ATOM
      1 C10          6.4950     2.6050    -2.5480 c5         1 WJ5       0.191800
      2 C11          7.5820     2.1250    -1.5250 c5         1 WJ5      -0.073700
      3 C13         10.6140     3.9510    -2.7530 c          1 WJ5       0.653100
      4 C15         11.4320     7.2990    -1.2050 ca         1 WJ5      -0.089300
      5 C17         10.2520     9.2400    -0.3030 ca         1 WJ5      -0.095000
      6 C18         11.1810     9.3210     0.7450 ca         1 WJ5       0.123000
      7 C20         12.3580     7.3870    -0.1450 ca         1 WJ5      -0.083000
      8 C1           8.3590     1.0100    -2.2650 c5         1 WJ5      -0.073700
      9 C2           7.2750     0.4690    -3.2340 c5         1 WJ5       0.191800
     10 N1           6.6720     1.7260    -3.7260 n3         1 WJ5      -0.716500
     11 S1           5.5000     1.7110    -4.9500 sy         1 WJ5       1.156600
     12 C3           6.2280     0.5690    -6.1380 ca         1 WJ5      -0.316500
     13 C4           5.6840    -0.7180    -6.3250 ca         1 WJ5      -0.013000
     14 C5           6.2730    -1.5990    -7.2490 ca         1 WJ5      -0.133500
     15 C6           7.4060    -1.2100    -7.9860 ca         1 WJ5      -0.017300
     16 C7           8.0340    -2.1770    -8.9790 c3         1 WJ5      -0.058800
     17 C8           7.9490     0.0740    -7.7930 ca         1 WJ5      -0.133500
     18 C9           7.3640     0.9620    -6.8740 ca         1 WJ5      -0.013000
     19 O1           5.5340     3.0500    -5.5500 o          1 WJ5      -0.532000
     20 O2           4.2770     1.1370    -4.3770 o          1 WJ5      -0.532000
     21 C12          8.6330     3.2530    -1.3110 c5         1 WJ5       0.107500
     22 N2           9.6100     3.0380    -2.4030 n          1 WJ5      -0.415800
     23 N3          10.6600     5.0980    -2.0070 ns         1 WJ5      -0.527900
     24 C14         11.5910     6.1980    -2.2460 c3         1 WJ5       0.163300
     25 C16         10.3740     8.2340    -1.2760 ca         1 WJ5       0.127000
     26 Cl1          9.1770     8.1650    -2.5720 cl         1 WJ5      -0.202000
     27 Cl2         11.0250    10.5820     1.9610 cl         1 WJ5      -0.194000
     28 C19         12.2330     8.3960     0.8260 ca         1 WJ5      -0.097000
     29 O3          11.3980     3.7420    -3.6660 o          1 WJ5      -0.626100
     30 C21          9.4560     1.7460    -3.1040 c5         1 WJ5       0.107500
     31 H1           6.6000     3.6630    -2.8230 h1         1 WJ5       0.062450
     32 H2           5.4930     2.4790    -2.1130 h1         1 WJ5       0.062450
     33 H3           7.1260     1.7870    -0.5870 hc         1 WJ5       0.069700
     34 H4           9.4380     9.9560    -0.3610 ha         1 WJ5       0.144000
     35 H5          13.1760     6.6730    -0.0710 ha         1 WJ5       0.121000
     36 H6           8.7780     0.2520    -1.5930 hc         1 WJ5       0.069700
     37 H7           6.5370    -0.1510    -2.7050 h1         1 WJ5       0.062450
     38 H8           7.7160    -0.1390    -4.0370 h1         1 WJ5       0.062450
     39 H9           4.8100    -1.0400    -5.7610 ha         1 WJ5       0.134500
     40 H10          5.8470    -2.5900    -7.3900 ha         1 WJ5       0.118500
     41 H11          8.3660    -3.0930    -8.4770 hc         1 WJ5       0.050700
     42 H12          7.3140    -2.4630    -9.7550 hc         1 WJ5       0.050700
     43 H13          8.9050    -1.7390    -9.4810 hc         1 WJ5       0.050700
     44 H14          8.8260     0.3880    -8.3540 ha         1 WJ5       0.118500
     45 H15          7.7990     1.9500    -6.7290 ha         1 WJ5       0.134500
     46 H16          8.1770     4.2530    -1.3420 h1         1 WJ5       0.054200
     47 H17          9.1300     3.1390    -0.3380 h1         1 WJ5       0.054200
     48 H18          9.9770     5.1960    -1.2690 hn         1 WJ5       0.313500
     49 H19         12.6170     5.8070    -2.2200 h1         1 WJ5       0.072700
     50 H20         11.4190     6.6030    -3.2530 h1         1 WJ5       0.072700
     51 H21         12.9510     8.4620     1.6400 ha         1 WJ5       0.135000
     52 H22         10.3950     1.1780    -3.1090 h1         1 WJ5       0.054200
     53 H23          9.1660     1.9140    -4.1510 h1         1 WJ5       0.054200
@<TRIPOS>BOND
     1     1     2 1   
     2     1    10 1   
     3     1    31 1   
     4     1    32 1   
     5     2     8 1   
     6     2    21 1   
     7     2    33 1   
     8     3    22 1   
     9     3    23 1   
    10     3    29 2   
    11     4     7 ar  
    12     4    24 1   
    13     4    25 ar  
    14     5     6 ar  
    15     5    25 ar  
    16     5    34 1   
    17     6    27 1   
    18     6    28 ar  
    19     7    28 ar  
    20     7    35 1   
    21     8     9 1   
    22     8    30 1   
    23     8    36 1   
    24     9    10 1   
    25     9    37 1   
    26     9    38 1   
    27    10    11 1   
    28    11    12 1   
    29    11    19 2   
    30    11    20 2   
    31    12    13 ar  
    32    12    18 ar  
    33    13    14 ar  
    34    13    39 1   
    35    14    15 ar  
    36    14    40 1   
    37    15    16 1   
    38    15    17 ar  
    39    16    41 1   
    40    16    42 1   
    41    16    43 1   
    42    17    18 ar  
    43    17    44 1   
    44    18    45 1   
    45    21    22 1   
    46    21    46 1   
    47    21    47 1   
    48    22    30 1   
    49    23    24 1   
    50    23    48 1   
    51    24    49 1   
    52    24    50 1   
    53    25    26 1   
    54    28    51 1   
    55    30    52 1   
    56    30    53 1   
@<TRIPOS>SUBSTRUCTURE
     1 WJ5         1 TEMP              0 ****  ****    0 ROOT
