@<TRIPOS>MOLECULE
WJ6
  115   122     1     0     0
SMALL
abcg2


@<TRIPOS>ATOM
      1 N1         138.9570   138.8850    93.1060 na         1 WJ6      -0.168600
      2 N3         138.6650   143.5450    88.8070 nt         1 WJ6      -0.607000
      3 C4         138.9700   139.4920    91.8710 ca         1 WJ6      -0.005200
      4 C5         138.5010   140.8050    92.0850 ca         1 WJ6       0.035400
      5 C6         138.3630   141.7140    91.0320 ca         1 WJ6      -0.007000
      6 C7         139.8960   138.1370    88.6320 cc         1 WJ6       0.039900
      7 C8         139.8110   137.8680    89.9580 cd         1 WJ6      -0.237200
      8 C13        139.0840   139.1440    97.6090 cc         1 WJ6      -0.220600
      9 C15        138.9030   139.0950    99.8170 cd         1 WJ6       0.253300
     10 C17        139.1020   135.8800    97.0990 c3         1 WJ6      -0.114100
     11 C20        137.8370   136.6910    93.3350 c2         1 WJ6      -0.243200
     12 C21        136.6310   137.2310    93.2450 c2         1 WJ6      -0.225200
     13 C22        135.3200   136.5060    93.2670 c3         1 WJ6       0.112800
     14 C24        135.7790   133.0400    92.2270 ca         1 WJ6       0.090400
     15 C26        135.9350   132.0680    91.2400 ca         1 WJ6      -0.062000
     16 C28        135.5560   133.8180    89.5840 ca         1 WJ6      -0.140000
     17 C1         138.6790   141.3180    89.7340 ca         1 WJ6      -0.160600
     18 C11        140.3100   137.3330    87.4630 c3         1 WJ6      -0.033900
     19 C12        139.3960   139.4990    96.2050 c          1 WJ6       0.643700
     20 C14        139.4530   139.8310    98.7500 cd         1 WJ6      -0.158000
     21 C18        138.9490   139.4020   101.2770 c3         1 WJ6      -0.120400
     22 C19        139.1270   137.4650    93.3740 c3         1 WJ6       0.114800
     23 C2         139.1380   140.0000    89.5580 ca         1 WJ6       0.108100
     24 C23        135.6250   134.1190    94.0700 cc         1 WJ6       0.471400
     25 C25        135.5130   134.3810    91.8910 ca         1 WJ6      -0.081200
     26 C27        135.8170   132.4720    89.9150 ca         1 WJ6      -0.127600
     27 C29        135.4010   134.7950    90.5550 ca         1 WJ6       0.152100
     28 C3         139.3190   139.0640    90.5870 ca         1 WJ6      -0.112800
     29 C30        134.6230   134.9880    96.1260 c          1 WJ6       0.647700
     30 C31        134.8840   135.1150    97.5730 cc         1 WJ6      -0.229600
     31 C32        135.6200   134.3030    98.4210 cd         1 WJ6      -0.194000
     32 C33        135.5280   134.9090    99.6860 cd         1 WJ6       0.260300
     33 C34        136.1130   134.4530   100.9800 c3         1 WJ6      -0.119400
     34 C36        134.6650   138.3930    97.3350 c3         1 WJ6      -0.117100
     35 C38        136.2330   138.0180    89.4160 c3         1 WJ6      -0.089400
     36 C39        135.3410   139.0580    90.0880 c3         1 WJ6       0.174800
     37 C40        135.9670   131.5160    88.7730 c          1 WJ6       0.613700
     38 C41        134.8070   140.5960    88.2540 c6         1 WJ6       0.131800
     39 C42        134.9530   141.9650    88.9090 c6         1 WJ6       0.116600
     40 C43        133.2860   141.4320    90.4870 c6         1 WJ6       0.116600
     41 C44        133.1050   140.0580    89.8530 c6         1 WJ6       0.131800
     42 C9         138.4910   139.8310    93.9910 cc         1 WJ6       0.457400
     43 N10        134.7980   136.0260    99.6080 nc         1 WJ6      -0.494800
     44 N11        134.3930   136.1340    98.3300 na         1 WJ6       0.155800
     45 N13        134.3120   139.5720    89.1810 n3         1 WJ6      -0.728600
     46 N2         138.2170   140.9800    93.4340 nd         1 WJ6      -0.554100
     47 N4         138.3300   139.5270    95.3470 ns         1 WJ6      -0.431400
     48 N5         138.2680   138.0160    99.3560 nc         1 WJ6      -0.502800
     49 N6         138.3590   138.0640    98.0110 na         1 WJ6       0.125800
     50 N7         135.4210   135.0610    93.0930 na         1 WJ6      -0.164600
     51 N8         135.8400   132.9120    93.6060 nd         1 WJ6      -0.590100
     52 O1         139.4960   139.4300    88.3700 os         1 WJ6      -0.151200
     53 O3         140.5340   139.7550    95.8420 o          1 WJ6      -0.538100
     54 O4         133.5840   135.3540    95.5930 o          1 WJ6      -0.567100
     55 O5         135.1240   136.0980    90.3170 os         1 WJ6      -0.375100
     56 O6         136.2180   131.9110    87.6310 o          1 WJ6      -0.613100
     57 O7         133.7220   142.3800    89.5090 os         1 WJ6      -0.459000
     58 H1         138.5240   144.2000    88.0550 hn         1 WJ6       0.319000
     59 H2         139.0540   143.8850    89.6700 hn         1 WJ6       0.319000
     60 H3         137.9730   142.7030    91.2290 ha         1 WJ6       0.137000
     61 H4         140.0550   136.9270    90.4180 ha         1 WJ6       0.212000
     62 H5         135.9150   129.5380    88.2960 hn         1 WJ6       0.317000
     63 H6         135.5050   129.8670    89.9400 hn         1 WJ6       0.317000
     64 H7         138.7510   135.0170    96.5310 hc         1 WJ6       0.050700
     65 H8         139.9500   136.3150    96.5680 hc         1 WJ6       0.050700
     66 H9         139.4400   135.5370    98.0780 hc         1 WJ6       0.050700
     67 H10        137.9610   135.6160    93.4130 ha         1 WJ6       0.191000
     68 H12        136.5170   138.3060    93.1670 ha         1 WJ6       0.185000
     69 H14        134.6790   136.8850    92.4750 h1         1 WJ6       0.089700
     70 H15        134.8030   136.7000    94.2050 h1         1 WJ6       0.089700
     71 H16        136.1660   131.0500    91.5200 ha         1 WJ6       0.129000
     72 H17        135.4660   134.0710    88.5380 ha         1 WJ6       0.146000
     73 H18        141.1710   137.7840    86.9630 hc         1 WJ6       0.063367
     74 H19        140.5790   136.3280    87.7840 hc         1 WJ6       0.063367
     75 H20        139.4990   137.2650    86.7340 hc         1 WJ6       0.063367
     76 H21        140.0090   140.7530    98.7940 ha         1 WJ6       0.158000
     77 H22        137.6080   137.2070    96.2690 h1         1 WJ6       0.068700
     78 H23        137.1340   136.4450    97.7780 h1         1 WJ6       0.068700
     79 H24        138.5650   138.5600   101.8530 hc         1 WJ6       0.051700
     80 H25        139.9700   139.6110   101.6000 hc         1 WJ6       0.051700
     81 H26        138.3450   140.2820   101.5110 hc         1 WJ6       0.051700
     82 H27        139.6040   137.3510    94.3480 h1         1 WJ6       0.077700
     83 H28        139.8350   137.0690    92.6460 h1         1 WJ6       0.077700
     84 H29        136.1300   133.3880    98.1660 ha         1 WJ6       0.147000
     85 H30        135.9680   135.2110   101.7490 hc         1 WJ6       0.052367
     86 H31        135.6440   133.5260   101.3180 hc         1 WJ6       0.052367
     87 H32        137.1830   134.2620   100.8760 hc         1 WJ6       0.052367
     88 H33        133.1960   137.7300    98.7830 h1         1 WJ6       0.085200
     89 H34        132.9610   137.0690    97.1610 h1         1 WJ6       0.085200
     90 H35        134.1100   139.2970    97.0810 hc         1 WJ6       0.048033
     91 H36        135.4320   138.6510    98.0660 hc         1 WJ6       0.048033
     92 H37        135.1550   138.0280    96.4300 hc         1 WJ6       0.048033
     93 H38        134.6510   136.8750    88.4660 h1         1 WJ6       0.058700
     94 H39        136.2220   136.0540    88.5480 h1         1 WJ6       0.058700
     95 H40        137.0710   137.7960    90.0760 hc         1 WJ6       0.058200
     96 H41        136.6620   138.4240    88.4960 hc         1 WJ6       0.058200
     97 H42        135.9800   139.8500    90.5000 h1         1 WJ6       0.032700
     98 H43        134.8360   138.6010    90.9390 h1         1 WJ6       0.032700
     99 H45        134.1000   140.6780    87.4230 h1         1 WJ6       0.064950
    100 H46        135.7370   141.9480    89.6740 h1         1 WJ6       0.047450
    101 H47        135.2130   142.7220    88.1690 h1         1 WJ6       0.047450
    102 H48        132.3430   141.8060    90.8870 h1         1 WJ6       0.047450
    103 H49        134.0190   141.3870    91.3040 h1         1 WJ6       0.047450
    104 H50        132.3050   140.1260    89.1080 h1         1 WJ6       0.064950
    105 H51        132.7980   139.3330    90.6090 h1         1 WJ6       0.064950
    106 H53        137.3900   139.5150    95.7190 hn         1 WJ6       0.345500
    107 C10        138.4820   142.2290    88.5670 c          1 WJ6       0.620700
    108 N9         135.6650   134.4410    95.4240 ns         1 WJ6      -0.418400
    109 C16        137.9680   136.8860    97.2430 c3         1 WJ6       0.077600
    110 O2         138.1510   141.8090    87.4580 o          1 WJ6      -0.597100
    111 N12        135.8270   130.2020    89.0490 nt         1 WJ6      -0.604000
    112 C35        133.7060   137.3510    97.8990 c3         1 WJ6       0.080600
    113 C37        135.5400   136.7160    89.0780 c3         1 WJ6       0.173600
    114 H44        135.7680   140.2850    87.8440 h1         1 WJ6       0.064950
    115 H54        136.4540   134.0790    95.9390 hn         1 WJ6       0.345500
@<TRIPOS>BOND
     1     1     3 1   
     2     1    22 1   
     3     1    42 1   
     4     2    58 1   
     5     2    59 1   
     6     2   107 1   
     7     3     4 ar  
     8     3    28 ar  
     9     4     5 ar  
    10     4    46 1   
    11     5    17 ar  
    12     5    60 1   
    13     6     7 2   
    14     6    18 1   
    15     6    52 1   
    16     7    28 1   
    17     7    61 1   
    18     8    19 1   
    19     8    20 2   
    20     8    49 1   
    21     9    20 1   
    22     9    21 1   
    23     9    48 2   
    24    10    64 1   
    25    10    65 1   
    26    10    66 1   
    27    10   109 1   
    28    11    12 2   
    29    11    22 1   
    30    11    67 1   
    31    12    13 1   
    32    12    68 1   
    33    13    50 1   
    34    13    69 1   
    35    13    70 1   
    36    14    15 ar  
    37    14    25 ar  
    38    14    51 1   
    39    15    26 ar  
    40    15    71 1   
    41    16    26 ar  
    42    16    27 ar  
    43    16    72 1   
    44    17    23 ar  
    45    17   107 1   
    46    18    73 1   
    47    18    74 1   
    48    18    75 1   
    49    19    47 1   
    50    19    53 2   
    51    20    76 1   
    52    21    79 1   
    53    21    80 1   
    54    21    81 1   
    55    22    82 1   
    56    22    83 1   
    57    23    28 ar  
    58    23    52 1   
    59    24    50 1   
    60    24    51 2   
    61    24   108 1   
    62    25    27 ar  
    63    25    50 1   
    64    26    37 1   
    65    27    55 1   
    66    29    30 1   
    67    29    54 2   
    68    29   108 1   
    69    30    31 2   
    70    30    44 1   
    71    31    32 1   
    72    31    84 1   
    73    32    33 1   
    74    32    43 2   
    75    33    85 1   
    76    33    86 1   
    77    33    87 1   
    78    34    90 1   
    79    34    91 1   
    80    34    92 1   
    81    34   112 1   
    82    35    36 1   
    83    35    95 1   
    84    35    96 1   
    85    35   113 1   
    86    36    45 1   
    87    36    97 1   
    88    36    98 1   
    89    37    56 2   
    90    37   111 1   
    91    38    39 1   
    92    38    45 1   
    93    38    99 1   
    94    38   114 1   
    95    39    57 1   
    96    39   100 1   
    97    39   101 1   
    98    40    41 1   
    99    40    57 1   
   100    40   102 1   
   101    40   103 1   
   102    41    45 1   
   103    41   104 1   
   104    41   105 1   
   105    42    46 2   
   106    42    47 1   
   107    43    44 1   
   108    44   112 1   
   109    47   106 1   
   110    48    49 1   
   111    49   109 1   
   112    55   113 1   
   113    62   111 1   
   114    63   111 1   
   115    77   109 1   
   116    78   109 1   
   117    88   112 1   
   118    89   112 1   
   119    93   113 1   
   120    94   113 1   
   121   107   110 2   
   122   108   115 1   
@<TRIPOS>SUBSTRUCTURE
     1 WJ6         1 TEMP              0 ****  ****    0 ROOT
