@<TRIPOS>MOLECULE
WJ6
  115   122     1     0     0
SMALL
No Charge or Current Charge


@<TRIPOS>ATOM
      1 N1         139.5780   138.4520    93.0200 na         1 WJ6      -0.168600
      2 N3         140.4180   143.0960    88.7390 nt         1 WJ6      -0.607000
      3 C4         139.7270   139.0490    91.8020 ca         1 WJ6      -0.005200
      4 C5         139.8950   140.3850    92.0450 ca         1 WJ6       0.035400
      5 C6         140.0700   141.3020    90.9860 ca         1 WJ6      -0.007000
      6 C7         139.5300   137.4610    88.5240 cc         1 WJ6       0.039900
      7 C8         139.4680   137.2970    89.8900 cd         1 WJ6      -0.237200
      8 C13        138.8680   139.5980    97.6420 cc         1 WJ6      -0.220600
      9 C15        138.3600   139.5060    99.8280 cd         1 WJ6       0.253300
     10 C17        138.5440   136.1960    96.9550 c3         1 WJ6      -0.114100
     11 C20        138.0640   136.4910    93.3770 c2         1 WJ6      -0.243200
     12 C21        136.9410   137.2370    93.4250 c2         1 WJ6      -0.225200
     13 C22        135.5110   136.7330    93.5190 c3         1 WJ6       0.112800
     14 C24        135.6700   133.4080    92.1550 ca         1 WJ6       0.090400
     15 C26        135.9040   132.5510    91.0720 ca         1 WJ6      -0.062000
     16 C28        135.9070   134.5080    89.6040 ca         1 WJ6      -0.140000
     17 C1         140.0570   140.8370    89.6350 ca         1 WJ6      -0.160600
     18 C11        139.3420   136.4720    87.4100 c3         1 WJ6      -0.033900
     19 C12        139.4300   140.1170    96.3640 c          1 WJ6       0.643700
     20 C14        138.9900   140.2690    98.8320 cd         1 WJ6      -0.158000
     21 C18        138.2520   139.8440   101.2880 c3         1 WJ6      -0.120400
     22 C19        139.4870   136.9990    93.2300 c3         1 WJ6       0.114800
     23 C2         139.8550   139.4460    89.4310 ca         1 WJ6       0.108100
     24 C23        135.3360   134.2010    94.1280 cc         1 WJ6       0.471400
     25 C25        135.5490   134.7580    91.9810 ca         1 WJ6      -0.081200
     26 C27        136.0190   133.0990    89.7670 ca         1 WJ6      -0.127600
     27 C29        135.6800   135.3590    90.7130 ca         1 WJ6       0.152100
     28 C3         139.6890   138.5770    90.4870 ca         1 WJ6      -0.112800
     29 C30        134.5600   135.0360    96.3150 c          1 WJ6       0.647700
     30 C31        134.9250   134.9180    97.7480 cc         1 WJ6      -0.229600
     31 C32        135.9020   134.1140    98.2850 cd         1 WJ6      -0.194000
     32 C33        135.9300   134.3500    99.6710 cd         1 WJ6       0.260300
     33 C34        136.8480   133.7080   100.6710 c3         1 WJ6      -0.119400
     34 C36        133.9170   138.0420    98.5250 c3         1 WJ6      -0.117100
     35 C38        136.0680   138.9150    89.6780 c3         1 WJ6      -0.089400
     36 C39        134.7590   139.6070    90.1180 c3         1 WJ6       0.174800
     37 C40        136.2690   132.2230    88.5560 c          1 WJ6       0.613700
     38 C41        133.9370   140.3190    87.8440 c6         1 WJ6       0.131800
     39 C42        133.8850   141.8650    88.0520 c6         1 WJ6       0.116600
     40 C43        132.3130   141.5890    89.8680 c6         1 WJ6       0.116600
     41 C44        132.3490   140.0380    89.6830 c6         1 WJ6       0.131800
     42 C9         139.6090   139.4660    93.9780 cc         1 WJ6       0.457400
     43 N10        135.0430   135.2450   100.0490 nc         1 WJ6      -0.494800
     44 N11        134.4280   135.5980    98.8630 na         1 WJ6       0.155800
     45 N13        133.6560   139.5710    89.1170 n3         1 WJ6      -0.728600
     46 N2         139.8250   140.6670    93.4090 nd         1 WJ6      -0.554100
     47 N4         139.3390   139.2460    95.3080 ns         1 WJ6      -0.431400
     48 N5         137.8280   138.4030    99.3520 nc         1 WJ6      -0.502800
     49 N6         138.1280   138.4570    98.0040 na         1 WJ6       0.125800
     50 N7         135.3510   135.2880    93.2370 na         1 WJ6      -0.164600
     51 N8         135.5640   133.0440    93.4920 nd         1 WJ6      -0.590100
     52 O1         139.7770   138.7960    88.2100 os         1 WJ6      -0.151200
     53 O3         139.9460   141.2220    96.2780 o          1 WJ6      -0.538100
     54 O4         133.6850   135.7800    95.9010 o          1 WJ6      -0.567100
     55 O5         135.6160   136.7330    90.5870 os         1 WJ6      -0.375100
     56 O6         136.3890   132.6740    87.4290 o          1 WJ6      -0.613100
     57 O7         132.6050   142.2510    88.6120 os         1 WJ6      -0.459000
     58 H1         140.5380   143.7390    87.9700 hn         1 WJ6       0.319000
     59 H2         140.4390   143.4280    89.6890 hn         1 WJ6       0.319000
     60 H3         140.1980   142.3530    91.2290 ha         1 WJ6       0.137000
     61 H4         139.2420   136.3620    90.3920 ha         1 WJ6       0.212000
     62 H5         136.5290   130.2960    87.9350 hn         1 WJ6       0.317000
     63 H6         136.2660   130.4870    89.6550 hn         1 WJ6       0.317000
     64 H7         138.1050   135.4550    96.2760 hc         1 WJ6       0.050700
     65 H8         139.5100   136.5130    96.5440 hc         1 WJ6       0.050700
     66 H9         138.7280   135.7080    97.9200 hc         1 WJ6       0.050700
     67 H10        138.0100   135.4020    93.4260 ha         1 WJ6       0.191000
     68 H12        136.9890   138.3250    93.3510 ha         1 WJ6       0.185000
     69 H14        134.8650   137.2990    92.8370 h1         1 WJ6       0.089700
     70 H15        135.1520   136.9620    94.5240 h1         1 WJ6       0.089700
     71 H16        135.9960   131.4850    91.2580 ha         1 WJ6       0.129000
     72 H17        136.0020   134.9260    88.6060 ha         1 WJ6       0.146000
     73 H18        140.2930   136.2730    86.9030 hc         1 WJ6       0.063367
     74 H19        138.9540   135.5200    87.7910 hc         1 WJ6       0.063367
     75 H20        138.6320   136.8530    86.6670 hc         1 WJ6       0.063367
     76 H21        139.4940   141.2180    98.9870 ha         1 WJ6       0.158000
     77 H22        137.3160   137.8180    96.1610 h1         1 WJ6       0.068700
     78 H23        136.6570   137.0270    97.5840 h1         1 WJ6       0.068700
     79 H24        138.7240   139.0700   101.9050 hc         1 WJ6       0.051700
     80 H25        138.7460   140.7970   101.5100 hc         1 WJ6       0.051700
     81 H26        137.2030   139.9290   101.5940 hc         1 WJ6       0.051700
     82 H27        140.0530   136.7490    94.1370 h1         1 WJ6       0.077700
     83 H28        139.9960   136.4810    92.4100 h1         1 WJ6       0.077700
     84 H29        136.5570   133.4250    97.7620 ha         1 WJ6       0.147000
     85 H30        137.5140   134.4510   101.1230 hc         1 WJ6       0.052367
     86 H31        136.2780   133.2280   101.4760 hc         1 WJ6       0.052367
     87 H32        137.4720   132.9410   100.1980 hc         1 WJ6       0.052367
     88 H33        132.9330   136.6660    99.8790 h1         1 WJ6       0.085200
     89 H34        132.5910   136.3550    98.1740 h1         1 WJ6       0.085200
     90 H35        133.1080   138.7800    98.5670 hc         1 WJ6       0.048033
     91 H36        134.6980   138.3460    99.2320 hc         1 WJ6       0.048033
     92 H37        134.3410   138.0540    97.5140 hc         1 WJ6       0.048033
     93 H38        135.1120   137.2630    88.6170 h1         1 WJ6       0.058700
     94 H39        136.8500   137.0520    88.9300 h1         1 WJ6       0.058700
     95 H40        136.8070   139.0250    90.4800 hc         1 WJ6       0.058200
     96 H41        136.4920   139.4280    88.8080 hc         1 WJ6       0.058200
     97 H42        134.9970   140.6440    90.3870 h1         1 WJ6       0.032700
     98 H43        134.4230   139.1170    91.0420 h1         1 WJ6       0.032700
     99 H45        133.1850   140.0550    87.0870 h1         1 WJ6       0.064950
    100 H46        134.6920   142.1900    88.7250 h1         1 WJ6       0.047450
    101 H47        134.0210   142.3750    87.0880 h1         1 WJ6       0.047450
    102 H48        131.3160   141.8990    90.2120 h1         1 WJ6       0.047450
    103 H49        133.0460   141.9020    90.6240 h1         1 WJ6       0.047450
    104 H50        131.5260   139.7540    89.0100 h1         1 WJ6       0.064950
    105 H51        132.1440   139.5530    90.6480 h1         1 WJ6       0.064950
    106 H53        139.0210   138.3260    95.5520 hn         1 WJ6       0.345500
    107 C10        140.2340   141.7840    88.4700 c          1 WJ6       0.620700
    108 N9         135.2900   134.2220    95.4960 ns         1 WJ6      -0.418400
    109 C16        137.5880   137.3920    97.1330 c3         1 WJ6       0.077600
    110 O2         140.2200   141.4300    87.3040 o          1 WJ6      -0.597100
    111 N12        136.3630   130.8870    88.7360 nt         1 WJ6      -0.604000
    112 C35        133.3820   136.6380    98.8790 c3         1 WJ6       0.080600
    113 C37        135.9080   137.4170    89.3560 c3         1 WJ6       0.173600
    114 H44        134.9090   140.0420    87.4140 h1         1 WJ6       0.064950
    115 H54        135.7730   133.4770    95.9690 hn         1 WJ6       0.345500
@<TRIPOS>BOND
     1     1     3 1   
     2     1    22 1   
     3     1    42 1   
     4     2    58 1   
     5     2    59 1   
     6     2   107 1   
     7     3     4 ar  
     8     3    28 ar  
     9     4     5 ar  
    10     4    46 1   
    11     5    17 ar  
    12     5    60 1   
    13     6     7 2   
    14     6    18 1   
    15     6    52 1   
    16     7    28 1   
    17     7    61 1   
    18     8    19 1   
    19     8    20 2   
    20     8    49 1   
    21     9    20 1   
    22     9    21 1   
    23     9    48 2   
    24    10    64 1   
    25    10    65 1   
    26    10    66 1   
    27    10   109 1   
    28    11    12 2   
    29    11    22 1   
    30    11    67 1   
    31    12    13 1   
    32    12    68 1   
    33    13    50 1   
    34    13    69 1   
    35    13    70 1   
    36    14    15 ar  
    37    14    25 ar  
    38    14    51 1   
    39    15    26 ar  
    40    15    71 1   
    41    16    26 ar  
    42    16    27 ar  
    43    16    72 1   
    44    17    23 ar  
    45    17   107 1   
    46    18    73 1   
    47    18    74 1   
    48    18    75 1   
    49    19    47 1   
    50    19    53 2   
    51    20    76 1   
    52    21    79 1   
    53    21    80 1   
    54    21    81 1   
    55    22    82 1   
    56    22    83 1   
    57    23    28 ar  
    58    23    52 1   
    59    24    50 1   
    60    24    51 2   
    61    24   108 1   
    62    25    27 ar  
    63    25    50 1   
    64    26    37 1   
    65    27    55 1   
    66    29    30 1   
    67    29    54 2   
    68    29   108 1   
    69    30    31 2   
    70    30    44 1   
    71    31    32 1   
    72    31    84 1   
    73    32    33 1   
    74    32    43 2   
    75    33    85 1   
    76    33    86 1   
    77    33    87 1   
    78    34    90 1   
    79    34    91 1   
    80    34    92 1   
    81    34   112 1   
    82    35    36 1   
    83    35    95 1   
    84    35    96 1   
    85    35   113 1   
    86    36    45 1   
    87    36    97 1   
    88    36    98 1   
    89    37    56 2   
    90    37   111 1   
    91    38    39 1   
    92    38    45 1   
    93    38    99 1   
    94    38   114 1   
    95    39    57 1   
    96    39   100 1   
    97    39   101 1   
    98    40    41 1   
    99    40    57 1   
   100    40   102 1   
   101    40   103 1   
   102    41    45 1   
   103    41   104 1   
   104    41   105 1   
   105    42    46 2   
   106    42    47 1   
   107    43    44 1   
   108    44   112 1   
   109    47   106 1   
   110    48    49 1   
   111    49   109 1   
   112    55   113 1   
   113    62   111 1   
   114    63   111 1   
   115    77   109 1   
   116    78   109 1   
   117    88   112 1   
   118    89   112 1   
   119    93   113 1   
   120    94   113 1   
   121   107   110 2   
   122   108   115 1   
@<TRIPOS>SUBSTRUCTURE
     1 WJ6         1 TEMP              0 ****  ****    0 ROOT
