@<TRIPOS>MOLECULE
WJ7
   22    22     1     0     0
SMALL
No Charge or Current Charge


@<TRIPOS>ATOM
      1 C4         -11.3470     3.9240    -5.0630 ca         1 WJ7      -0.053000
      2 C5         -12.0320     2.9890    -5.8590 ca         1 WJ7      -0.146000
      3 C6         -11.3400     2.2680    -6.8420 ca         1 WJ7       0.185000
      4 C7          -9.9640     2.4640    -7.0260 ca         1 WJ7      -0.134000
      5 C8          -9.2740     3.4000    -6.2360 ca         1 WJ7       0.025100
      6 N           -8.6250     6.2570    -5.0230 n          1 WJ7      -0.397800
      7 C           -7.8230     7.2070    -4.2230 c3         1 WJ7       0.085300
      8 O           -9.2520     5.0390    -3.1740 o          1 WJ7      -0.582100
      9 C1          -8.9970     6.6800    -6.3940 c3         1 WJ7       0.085300
     10 C3          -9.9690     4.1540    -5.2590 ca         1 WJ7      -0.134600
     11 F          -11.9980     1.3660    -7.6030 f          1 WJ7      -0.170000
     12 Br          -7.3700     3.5350    -6.4560 br         1 WJ7      -0.074100
     13 H6         -11.8900     4.4820    -4.3030 ha         1 WJ7       0.131000
     14 H7         -13.0970     2.8220    -5.7140 ha         1 WJ7       0.140000
     15 H8          -9.4330     1.8800    -7.7720 ha         1 WJ7       0.150000
     16 H2          -7.1490     6.6560    -3.5540 h1         1 WJ7       0.044700
     17 H           -7.2170     7.8420    -4.8830 h1         1 WJ7       0.044700
     18 H1          -8.4880     7.8410    -3.6240 h1         1 WJ7       0.044700
     19 H4         -10.0290     6.3850    -6.6230 h1         1 WJ7       0.044700
     20 H5          -8.9260     7.7720    -6.4840 h1         1 WJ7       0.044700
     21 H3          -8.3190     6.2240    -7.1250 h1         1 WJ7       0.044700
     22 C2          -9.2780     5.1740    -4.3910 c          1 WJ7       0.621700
@<TRIPOS>BOND
     1     1     2 ar  
     2     1    10 ar  
     3     1    13 1   
     4     2     3 ar  
     5     2    14 1   
     6     3     4 ar  
     7     3    11 1   
     8     4     5 ar  
     9     4    15 1   
    10     5    10 ar  
    11     5    12 1   
    12     6     7 1   
    13     6     9 1   
    14     6    22 1   
    15     7    16 1   
    16     7    17 1   
    17     7    18 1   
    18     8    22 2   
    19     9    19 1   
    20     9    20 1   
    21     9    21 1   
    22    10    22 1   
@<TRIPOS>SUBSTRUCTURE
     1 WJ7         1 TEMP              0 ****  ****    0 ROOT
