@<TRIPOS>MOLECULE
WJ7
   22    22     1     0     0
SMALL
bcc


@<TRIPOS>ATOM
      1 C4         -11.2510     4.0130    -5.1330 ca         1 WJ7      -0.071000
      2 C5         -11.9960     3.1010    -5.8630 ca         1 WJ7      -0.164000
      3 C6         -11.3400     2.3080    -6.7840 ca         1 WJ7       0.149900
      4 C7          -9.9780     2.3930    -6.9990 ca         1 WJ7      -0.152000
      5 C8          -9.2610     3.3210    -6.2570 ca         1 WJ7       0.025100
      6 N           -8.7440     6.2660    -4.9790 n          1 WJ7      -0.464800
      7 C           -7.9270     7.1950    -4.2280 c3         1 WJ7       0.085300
      8 O           -8.8490     4.7420    -3.3030 o          1 WJ7      -0.582100
      9 C1          -9.0820     6.7030    -6.3170 c3         1 WJ7       0.085300
     10 C3          -9.8800     4.1490    -5.3290 ca         1 WJ7      -0.134600
     11 F          -12.0420     1.4220    -7.4980 f          1 WJ7      -0.134900
     12 BR          -7.4000     3.4450    -6.5310 br         1 WJ7      -0.074100
     13 H6         -11.7500     4.6410    -4.4070 ha         1 WJ7       0.149000
     14 H7         -13.0630     3.0080    -5.7130 ha         1 WJ7       0.158000
     15 H8          -9.4990     1.7490    -7.7240 ha         1 WJ7       0.168000
     16 H2          -7.6620     6.7790    -3.2630 h1         1 WJ7       0.044700
     17 H           -7.0110     7.4150    -4.7790 h1         1 WJ7       0.044700
     18 H1          -8.4640     8.1320    -4.0740 h1         1 WJ7       0.044700
     19 H4          -9.8250     6.0560    -6.7730 h1         1 WJ7       0.044700
     20 H5          -9.4950     7.7110    -6.2750 h1         1 WJ7       0.044700
     21 H3          -8.1970     6.7230    -6.9550 h1         1 WJ7       0.044700
     22 C2          -9.1020     5.0880    -4.4490 c          1 WJ7       0.688700
@<TRIPOS>BOND
     1     1     2 ar  
     2     1    10 ar  
     3     1    13 1   
     4     2     3 ar  
     5     2    14 1   
     6     3     4 ar  
     7     3    11 1   
     8     4     5 ar  
     9     4    15 1   
    10     5    10 ar  
    11     5    12 1   
    12     6     7 1   
    13     6     9 1   
    14     6    22 1   
    15     7    16 1   
    16     7    17 1   
    17     7    18 1   
    18     8    22 2   
    19     9    19 1   
    20     9    20 1   
    21     9    21 1   
    22    10    22 1   
@<TRIPOS>SUBSTRUCTURE
     1 WJ7         1 TEMP              0 ****  ****    0 ROOT
