@<TRIPOS>MOLECULE
WJ8
   27    29     1     0     0
SMALL
No Charge or Current Charge


@<TRIPOS>ATOM
      1 C1           6.3890     9.1870     9.2580 ca         1 WJ8      -0.122500
      2 C2           5.9470     8.1940     8.3700 ca         1 WJ8      -0.094000
      3 C3           5.6630     6.9070     8.8490 ca         1 WJ8      -0.122500
      4 C4           5.8210     6.6100    10.2150 ca         1 WJ8      -0.072000
      5 C5           6.2660     7.5990    11.1250 ca         1 WJ8      -0.134500
      6 C6           6.5480     8.8940    10.6240 ca         1 WJ8      -0.072000
      7 C7           6.4300     7.2820    12.5560 cc         1 WJ8       0.621500
      8 N8           6.8630     8.2470    13.4380 nc         1 WJ8      -0.733000
      9 N9           6.1760     6.0760    13.0690 nd         1 WJ8      -0.483800
     10 N10          6.4700     6.2680    14.4110 n          1 WJ8      -0.072500
     11 C11          6.8540     7.5420    14.5220 cd         1 WJ8       0.671400
     12 N12          7.2360     8.1750    15.6550 na         1 WJ8      -0.772900
     13 C13          7.2650     7.5000    16.8810 cc         1 WJ8       0.170800
     14 C14          6.8640     6.1720    16.7710 cd         1 WJ8      -0.363200
     15 C15          6.4400     5.4600    15.5410 c          1 WJ8       0.563000
     16 O16          6.1010     4.2840    15.5250 o          1 WJ8      -0.459000
     17 C17          7.6890     8.1920    18.1580 c3         1 WJ8       0.137800
     18 Cl18         9.2610     9.0920    17.9720 cl         1 WJ8      -0.219000
     19 H1           6.6090    10.1860     8.8890 ha         1 WJ8       0.115000
     20 H2           5.8240     8.4230     7.3130 ha         1 WJ8       0.113000
     21 H3           5.3210     6.1360     8.1630 ha         1 WJ8       0.115000
     22 H4           5.5940     5.6030    10.5590 ha         1 WJ8       0.131500
     23 H5           6.8920     9.6830    11.2890 ha         1 WJ8       0.131500
     24 H6           7.5090     9.1470    15.5660 hn         1 WJ8       0.536000
     25 H7           6.8400     5.5370    17.6490 ha         1 WJ8       0.239000
     26 H8           6.9230     8.9150    18.4640 h1         1 WJ8       0.087200
     27 H9           7.8220     7.4570    18.9610 h1         1 WJ8       0.087200
@<TRIPOS>BOND
     1     1     2 ar  
     2     1     6 ar  
     3     1    19 1   
     4     2     3 ar  
     5     2    20 1   
     6     3     4 ar  
     7     3    21 1   
     8     4     5 ar  
     9     4    22 1   
    10     5     6 ar  
    11     5     7 1   
    12     6    23 1   
    13     7     8 1   
    14     7     9 2   
    15     8    11 2   
    16     9    10 1   
    17    10    11 1   
    18    10    15 1   
    19    11    12 1   
    20    12    13 1   
    21    12    24 1   
    22    13    14 2   
    23    13    17 1   
    24    14    15 1   
    25    14    25 1   
    26    15    16 2   
    27    17    18 1   
    28    17    26 1   
    29    17    27 1   
@<TRIPOS>SUBSTRUCTURE
     1 WJ8         1 TEMP              0 ****  ****    0 ROOT
