@<TRIPOS>MOLECULE
WJ8
   27    29     1     0     0
SMALL
abcg2


@<TRIPOS>ATOM
      1 C1           6.0890     9.1530     9.2050 ca         1 WJ8      -0.122500
      2 C2           5.7610     8.0860     8.3740 ca         1 WJ8      -0.094000
      3 C3           5.6670     6.8010     8.9030 ca         1 WJ8      -0.122500
      4 C4           5.9000     6.5820    10.2530 ca         1 WJ8      -0.072000
      5 C5           6.2310     7.6520    11.0930 ca         1 WJ8      -0.134500
      6 C6           6.3230     8.9390    10.5580 ca         1 WJ8      -0.072000
      7 C7           6.4800     7.4280    12.5190 cc         1 WJ8       0.621500
      8 N8           6.7780     8.4500    13.3900 nc         1 WJ8      -0.733000
      9 N9           6.4380     6.2240    13.0730 nd         1 WJ8      -0.483800
     10 N10          6.7250     6.4800    14.3800 n          1 WJ8      -0.072500
     11 C11          6.9230     7.8210    14.5330 cd         1 WJ8       0.671400
     12 N12          7.2270     8.3120    15.7570 na         1 WJ8      -0.772900
     13 C13          7.3340     7.4680    16.8300 cc         1 WJ8       0.170800
     14 C14          7.1400     6.1330    16.6830 cd         1 WJ8      -0.363200
     15 C15          6.8140     5.5260    15.4170 c          1 WJ8       0.563000
     16 O16          6.6260     4.3400    15.2010 o          1 WJ8      -0.459000
     17 C17          7.6600     8.1740    18.1140 c3         1 WJ8       0.137800
     18 CL18         7.9170     7.0800    19.5050 cl         1 WJ8      -0.219000
     19 H1           6.1650    10.1540     8.8000 ha         1 WJ8       0.115000
     20 H2           5.5790     8.2540     7.3200 ha         1 WJ8       0.113000
     21 H3           5.4110     5.9670     8.2610 ha         1 WJ8       0.115000
     22 H4           5.8270     5.5840    10.6620 ha         1 WJ8       0.131500
     23 H5           6.5790     9.7670    11.2040 ha         1 WJ8       0.131500
     24 H6           7.3780     9.3080    15.8510 hn         1 WJ8       0.536000
     25 H7           7.2280     5.4760    17.5320 ha         1 WJ8       0.239000
     26 H8           8.5700     8.7600    17.9940 h1         1 WJ8       0.087200
     27 H9           6.8450     8.8460    18.3810 h1         1 WJ8       0.087200
@<TRIPOS>BOND
     1     1     2 ar  
     2     1     6 ar  
     3     1    19 1   
     4     2     3 ar  
     5     2    20 1   
     6     3     4 ar  
     7     3    21 1   
     8     4     5 ar  
     9     4    22 1   
    10     5     6 ar  
    11     5     7 1   
    12     6    23 1   
    13     7     8 1   
    14     7     9 2   
    15     8    11 2   
    16     9    10 1   
    17    10    11 1   
    18    10    15 1   
    19    11    12 1   
    20    12    13 1   
    21    12    24 1   
    22    13    14 2   
    23    13    17 1   
    24    14    15 1   
    25    14    25 1   
    26    15    16 2   
    27    17    18 1   
    28    17    26 1   
    29    17    27 1   
@<TRIPOS>SUBSTRUCTURE
     1 WJ8         1 TEMP              0 ****  ****    0 ROOT
