@<TRIPOS>MOLECULE
WJ9
   71    74     1     0     0
SMALL
No Charge or Current Charge


@<TRIPOS>ATOM
      1 C1           5.6500   145.2770    88.8500 c3         1 WJ9      -0.099100
      2 C2           6.0560   144.3540    87.6800 c3         1 WJ9       0.241500
      3 C4           6.2940   145.1380    86.3480 c3         1 WJ9       0.135600
      4 C7           5.0990   142.1250    86.8520 ca         1 WJ9       0.660900
      5 C8           3.9550   141.3770    86.5840 ca         1 WJ9      -0.278000
      6 C11          6.4660   140.6000    85.8510 ca         1 WJ9       0.656900
      7 N13          7.7940   140.2810    85.4960 nh         1 WJ9      -0.767300
      8 C15          9.5020   139.3030    83.8750 c6         1 WJ9       0.143600
      9 C17         10.3120   140.6410    85.6950 c6         1 WJ9       0.143600
     10 C18          8.9380   140.5920    86.4250 c6         1 WJ9       0.175800
     11 C19          2.8890   139.2960    85.5780 cp         1 WJ9      -0.024000
     12 C21          1.6050   138.0780    83.8580 ca         1 WJ9      -0.017000
     13 C23          0.8420   138.0940    86.1740 ca         1 WJ9      -0.090000
     14 C24          1.9430   138.8820    86.5600 ca         1 WJ9      -0.079300
     15 C27          2.1180   137.7380    81.3590 c          1 WJ9       0.667100
     16 O28          3.2250   138.2570    81.2940 o          1 WJ9      -0.619100
     17 C30          0.1790   136.5450    80.2020 c5         1 WJ9       0.105000
     18 C31         -0.0990   136.4520    78.6800 c5         1 WJ9      -0.091400
     19 C32          1.3120   136.1390    78.1140 c5         1 WJ9      -0.081700
     20 C34          2.1800   137.1670    78.8960 c5         1 WJ9       0.121000
     21 C35          1.3990   136.2250    76.5640 c3         1 WJ9      -0.143400
     22 C36          2.7780   135.9010    75.9390 c3         1 WJ9       0.301000
     23 O5           7.3670   146.0910    86.4720 oh         1 WJ9      -0.662000
     24 N6           5.0070   143.3260    87.5140 nu         1 WJ9      -0.945100
     25 C9           4.0720   140.1480    85.9110 cp         1 WJ9       0.071000
     26 C10          5.3750   139.7740    85.5340 ca         1 WJ9      -0.270000
     27 N12          6.3280   141.7590    86.5050 nb         1 WJ9      -0.824000
     28 C14          8.0850   139.1850    84.5130 c6         1 WJ9       0.175800
     29 O16         10.5150   139.4550    84.8940 os         1 WJ9      -0.446000
     30 C20          2.7040   138.8760    84.2380 ca         1 WJ9      -0.103000
     31 C22          0.6740   137.7000    84.8380 ca         1 WJ9      -0.161000
     32 C25          2.0900   139.2390    88.0370 c3         1 WJ9      -0.042800
     33 N26          1.3710   137.6380    82.5260 ns         1 WJ9      -0.165000
     34 N29          1.5150   137.1810    80.2160 n          1 WJ9      -0.441800
     35 F37          2.6960   135.9010    74.5900 f          1 WJ9      -0.116000
     36 F38          3.2160   134.6810    76.3260 f          1 WJ9      -0.116000
     37 F39          3.7090   136.8150    76.2940 f          1 WJ9      -0.116000
     38 H1           5.4940   144.6950    89.7650 hc         1 WJ9       0.043033
     39 H2           6.4360   146.0140    89.0530 hc         1 WJ9       0.043033
     40 H3           4.7240   145.8190    88.6200 hc         1 WJ9       0.043033
     41 H4           7.0040   143.8720    87.9610 h1         1 WJ9       0.089700
     42 H5           5.3660   145.6510    86.0650 h1         1 WJ9       0.025700
     43 H6           6.5290   144.4220    85.5500 h1         1 WJ9       0.025700
     44 H7           2.9810   141.7480    86.8840 ha         1 WJ9       0.122000
     45 H8           9.7190   138.4040    83.2810 h1         1 WJ9       0.052450
     46 H9           9.5350   140.1710    83.2010 h1         1 WJ9       0.052450
     47 H10         11.1230   140.7200    86.4330 h1         1 WJ9       0.052450
     48 H11         10.3570   141.5270    85.0460 h1         1 WJ9       0.052450
     49 H12          8.8000   141.5620    86.9240 h1         1 WJ9       0.056200
     50 H13          8.9880   139.8300    87.2160 h1         1 WJ9       0.056200
     51 H14          0.1130   137.7770    86.9170 ha         1 WJ9       0.111000
     52 H15         -0.5830   137.1470    80.7150 h1         1 WJ9       0.045700
     53 H16          0.2180   135.5510    80.6670 h1         1 WJ9       0.045700
     54 H17         -0.4830   137.4030    78.2940 hc         1 WJ9       0.058200
     55 H18         -0.8360   135.6780    78.4400 hc         1 WJ9       0.058200
     56 H19          1.6010   135.1190    78.3980 hc         1 WJ9       0.073700
     57 H20          3.2300   136.8520    78.9630 h1         1 WJ9       0.065200
     58 H21          2.1440   138.1650    78.4370 h1         1 WJ9       0.065200
     59 H22          1.1000   137.2260    76.2310 hc         1 WJ9       0.081700
     60 H23          0.6660   135.5340    76.1290 hc         1 WJ9       0.081700
     61 H24          7.4650   146.5280    85.5970 ho         1 WJ9       0.444000
     62 H25          4.0590   143.5830    87.7740 hn         1 WJ9       0.484000
     63 H26          5.5250   138.8340    85.0160 ha         1 WJ9       0.131000
     64 H27          7.3520   139.2020    83.6930 h1         1 WJ9       0.056200
     65 H28          8.0020   138.2060    85.0080 h1         1 WJ9       0.056200
     66 H29          3.4300   139.2030    83.5020 ha         1 WJ9       0.145000
     67 H30         -0.1840   137.0890    84.5670 ha         1 WJ9       0.107000
     68 H31          1.6680   140.2280    88.2470 hc         1 WJ9       0.043700
     69 H32          1.5690   138.5170    88.6770 hc         1 WJ9       0.043700
     70 H33          3.1400   139.2420    88.3500 hc         1 WJ9       0.043700
     71 H34          0.4880   137.1610    82.4060 hn         1 WJ9       0.146000
@<TRIPOS>BOND
     1     1     2 1   
     2     1    38 1   
     3     1    39 1   
     4     1    40 1   
     5     2     3 1   
     6     2    24 1   
     7     2    41 1   
     8     3    23 1   
     9     3    42 1   
    10     3    43 1   
    11     4     5 ar  
    12     4    24 1   
    13     4    27 ar  
    14     5    25 ar  
    15     5    44 1   
    16     6     7 1   
    17     6    26 ar  
    18     6    27 ar  
    19     7    10 1   
    20     7    28 1   
    21     8    28 1   
    22     8    29 1   
    23     8    45 1   
    24     8    46 1   
    25     9    10 1   
    26     9    29 1   
    27     9    47 1   
    28     9    48 1   
    29    10    49 1   
    30    10    50 1   
    31    11    14 ar  
    32    11    25 1   
    33    11    30 ar  
    34    12    30 ar  
    35    12    31 ar  
    36    12    33 1   
    37    13    14 ar  
    38    13    31 ar  
    39    13    51 1   
    40    14    32 1   
    41    15    16 2   
    42    15    33 1   
    43    15    34 1   
    44    17    18 1   
    45    17    34 1   
    46    17    52 1   
    47    17    53 1   
    48    18    19 1   
    49    18    54 1   
    50    18    55 1   
    51    19    20 1   
    52    19    21 1   
    53    19    56 1   
    54    20    34 1   
    55    20    57 1   
    56    20    58 1   
    57    21    22 1   
    58    21    59 1   
    59    21    60 1   
    60    22    35 1   
    61    22    36 1   
    62    22    37 1   
    63    23    61 1   
    64    24    62 1   
    65    25    26 ar  
    66    26    63 1   
    67    28    64 1   
    68    28    65 1   
    69    30    66 1   
    70    31    67 1   
    71    32    68 1   
    72    32    69 1   
    73    32    70 1   
    74    33    71 1   
@<TRIPOS>SUBSTRUCTURE
     1 WJ9         1 TEMP              0 ****  ****    0 ROOT
