@<TRIPOS>MOLECULE
WJ9
   71    74     1     0     0
SMALL
abcg2


@<TRIPOS>ATOM
      1 C1           5.3500   145.3850    88.2300 c3         1 WJ9      -0.099100
      2 C2           5.7780   144.3570    87.1930 c3         1 WJ9       0.241500
      3 C4           6.0890   144.9940    85.8410 c3         1 WJ9       0.135600
      4 C7           4.9420   142.1090    86.5580 ca         1 WJ9       0.660900
      5 C8           3.8490   141.2560    86.3280 ca         1 WJ9      -0.278000
      6 C11          6.4550   140.5150    85.8610 ca         1 WJ9       0.656900
      7 N13          7.7780   140.2320    85.6110 nh         1 WJ9      -0.767300
      8 C15          9.5440   138.8370    84.6670 c6         1 WJ9       0.143600
      9 C17         10.1170   140.9110    85.4910 c6         1 WJ9       0.143600
     10 C18          8.8070   141.0420    86.2420 c6         1 WJ9       0.175800
     11 C19          3.0150   139.0270    85.5930 cp         1 WJ9      -0.024000
     12 C21          1.6850   137.8310    83.9590 ca         1 WJ9      -0.017000
     13 C23          1.3040   137.5350    86.3220 ca         1 WJ9      -0.090000
     14 C24          2.3240   138.4230    86.6490 ca         1 WJ9      -0.079300
     15 C27          2.1230   137.4820    81.5520 c          1 WJ9       0.667100
     16 O28          3.3300   137.6760    81.6180 o          1 WJ9      -0.619100
     17 C30          0.0650   137.0920    80.1760 c5         1 WJ9       0.105000
     18 C31         -0.0720   137.1800    78.6630 c5         1 WJ9      -0.091400
     19 C32          1.2280   136.5650    78.1470 c5         1 WJ9      -0.081700
     20 C34          2.2650   137.0710    79.1520 c5         1 WJ9       0.121000
     21 C35          1.4820   136.9390    76.6920 c3         1 WJ9      -0.143400
     22 C36          2.6650   136.2640    76.0550 c3         1 WJ9       0.301000
     23 O5           7.2060   145.8420    85.9870 oh         1 WJ9      -0.662000
     24 N6           4.7400   143.3580    87.0570 nu         1 WJ9      -0.945100
     25 C9           4.1170   139.9860    85.8550 cp         1 WJ9       0.071000
     26 C10          5.4300   139.5910    85.6140 ca         1 WJ9      -0.270000
     27 N12          6.1950   141.7350    86.3290 nb         1 WJ9      -0.824000
     28 C14          8.1930   138.8650    85.3590 c6         1 WJ9       0.175800
     29 O16         10.5200   139.5670    85.3700 os         1 WJ9      -0.446000
     30 C20          2.7010   138.7350    84.2690 ca         1 WJ9      -0.103000
     31 C22          0.9860   137.2370    85.0070 ca         1 WJ9      -0.161000
     32 C25          2.6750   138.6910    88.0840 c3         1 WJ9      -0.042800
     33 N26          1.2940   137.5360    82.6500 ns         1 WJ9      -0.165000
     34 N29          1.5020   137.2010    80.3850 n          1 WJ9      -0.441800
     35 F37          2.7790   136.5850    74.7560 f          1 WJ9      -0.116000
     36 F38          2.5820   134.9260    76.1130 f          1 WJ9      -0.116000
     37 F39          3.8320   136.5980    76.6310 f          1 WJ9      -0.116000
     38 H1           5.1850   144.9130    89.1980 hc         1 WJ9       0.043033
     39 H2           6.1110   146.1530    88.3560 hc         1 WJ9       0.043033
     40 H3           4.4230   145.8800    87.9300 hc         1 WJ9       0.043033
     41 H4           6.6800   143.8510    87.5430 h1         1 WJ9       0.089700
     42 H5           5.2000   145.5420    85.4970 h1         1 WJ9       0.025700
     43 H6           6.2840   144.1990    85.1110 h1         1 WJ9       0.025700
     44 H7           2.8360   141.5860    86.5230 ha         1 WJ9       0.122000
     45 H8           9.8890   137.8050    84.5930 h1         1 WJ9       0.052450
     46 H9           9.4330   139.2300    83.6470 h1         1 WJ9       0.052450
     47 H10         10.9010   141.4450    86.0300 h1         1 WJ9       0.052450
     48 H11         10.0160   141.3710    84.4980 h1         1 WJ9       0.052450
     49 H12          8.5050   142.0860    86.2410 h1         1 WJ9       0.056200
     50 H13          8.9470   140.7440    87.2900 h1         1 WJ9       0.056200
     51 H14          0.7500   137.0480    87.1160 ha         1 WJ9       0.111000
     52 H15         -0.4780   137.8960    80.6770 h1         1 WJ9       0.045700
     53 H16         -0.3220   136.1380    80.5510 h1         1 WJ9       0.045700
     54 H17         -0.1400   138.2270    78.3540 hc         1 WJ9       0.058200
     55 H18         -0.9590   136.6650    78.2970 hc         1 WJ9       0.058200
     56 H19          1.1500   135.4770    78.2390 hc         1 WJ9       0.073700
     57 H20          3.0970   136.3780    79.2760 h1         1 WJ9       0.065200
     58 H21          2.6770   138.0370    78.8430 h1         1 WJ9       0.065200
     59 H22          1.6140   138.0210    76.6030 hc         1 WJ9       0.081700
     60 H23          0.6010   136.6790    76.1000 hc         1 WJ9       0.081700
     61 H24          7.3750   146.2680    85.1430 ho         1 WJ9       0.444000
     62 H25          3.7870   143.6800    87.0980 hn         1 WJ9       0.484000
     63 H26          5.6200   138.5890    85.2590 ha         1 WJ9       0.131000
     64 H27          7.4880   138.3690    84.6940 h1         1 WJ9       0.056200
     65 H28          8.2290   138.2850    86.2910 h1         1 WJ9       0.056200
     66 H29          3.2480   139.2350    83.4840 ha         1 WJ9       0.145000
     67 H30          0.1900   136.5320    84.7950 ha         1 WJ9       0.107000
     68 H31          2.4470   139.7180    88.3760 hc         1 WJ9       0.043700
     69 H32          2.1220   138.0290    88.7480 hc         1 WJ9       0.043700
     70 H33          3.7390   138.5390    88.2710 hc         1 WJ9       0.043700
     71 H34          0.3790   137.1200    82.5710 hn         1 WJ9       0.146000
@<TRIPOS>BOND
     1     1     2 1   
     2     1    38 1   
     3     1    39 1   
     4     1    40 1   
     5     2     3 1   
     6     2    24 1   
     7     2    41 1   
     8     3    23 1   
     9     3    42 1   
    10     3    43 1   
    11     4     5 ar  
    12     4    24 1   
    13     4    27 ar  
    14     5    25 ar  
    15     5    44 1   
    16     6     7 1   
    17     6    26 ar  
    18     6    27 ar  
    19     7    10 1   
    20     7    28 1   
    21     8    28 1   
    22     8    29 1   
    23     8    45 1   
    24     8    46 1   
    25     9    10 1   
    26     9    29 1   
    27     9    47 1   
    28     9    48 1   
    29    10    49 1   
    30    10    50 1   
    31    11    14 ar  
    32    11    25 1   
    33    11    30 ar  
    34    12    30 ar  
    35    12    31 ar  
    36    12    33 1   
    37    13    14 ar  
    38    13    31 ar  
    39    13    51 1   
    40    14    32 1   
    41    15    16 2   
    42    15    33 1   
    43    15    34 1   
    44    17    18 1   
    45    17    34 1   
    46    17    52 1   
    47    17    53 1   
    48    18    19 1   
    49    18    54 1   
    50    18    55 1   
    51    19    20 1   
    52    19    21 1   
    53    19    56 1   
    54    20    34 1   
    55    20    57 1   
    56    20    58 1   
    57    21    22 1   
    58    21    59 1   
    59    21    60 1   
    60    22    35 1   
    61    22    36 1   
    62    22    37 1   
    63    23    61 1   
    64    24    62 1   
    65    25    26 ar  
    66    26    63 1   
    67    28    64 1   
    68    28    65 1   
    69    30    66 1   
    70    31    67 1   
    71    32    68 1   
    72    32    69 1   
    73    32    70 1   
    74    33    71 1   
@<TRIPOS>SUBSTRUCTURE
     1 WJ9         1 TEMP              0 ****  ****    0 ROOT
