@<TRIPOS>MOLECULE
WJA
   22    22     1     0     0
SMALL
abcg2


@<TRIPOS>ATOM
      1 N1         -11.3280     4.4700   -24.9930 nc         1 WJA      -0.354300
      2 C4         -10.3270     5.3270   -23.2180 cc         1 WJA       0.186300
      3 C5          -9.9270     6.4500   -22.3430 c3         1 WJA      -0.136400
      4 N           -8.8760     2.4780   -26.4770 n7         1 WJA      -0.887300
      5 C           -9.4420     2.3790   -27.8140 c3         1 WJA       0.188100
      6 O           -8.3970     1.5000   -24.2420 o          1 WJA      -0.537500
      7 C1         -10.9260     2.1040   -24.7860 c3         1 WJA      -0.338700
      8 C2         -10.7850     3.5010   -24.3140 cd         1 WJA       0.291300
      9 C3         -10.1240     3.9890   -23.1610 cd         1 WJA      -0.233000
     10 O1          -9.6710     0.0980   -25.8880 o          1 WJA      -0.537500
     11 O2         -11.0440     5.6100   -24.3120 os         1 WJA      -0.070700
     12 S           -9.3610     1.4080   -25.3280 s6         1 WJA       1.185100
     13 H7          -9.3210     7.1780   -22.8840 hc         1 WJA       0.063700
     14 H9         -10.7990     6.9720   -21.9470 hc         1 WJA       0.063700
     15 H8          -9.3440     6.0760   -21.5050 hc         1 WJA       0.063700
     16 H3          -7.8740     2.6210   -26.4470 hn         1 WJA       0.495000
     17 H           -9.0580     3.2150   -28.3930 h1         1 WJA       0.051700
     18 H2          -9.1900     1.4500   -28.3270 h1         1 WJA       0.051700
     19 H1         -10.5260     2.4810   -27.7790 h1         1 WJA       0.051700
     20 H4         -11.6280     2.0350   -25.6180 h1         1 WJA       0.117700
     21 H5         -11.2730     1.4410   -23.9900 h1         1 WJA       0.117700
     22 H6          -9.5910     3.4320   -22.4100 ha         1 WJA       0.168000
@<TRIPOS>BOND
     1     1     8 2   
     2     1    11 1   
     3     2     3 1   
     4     2     9 2   
     5     2    11 1   
     6     3    13 1   
     7     3    14 1   
     8     3    15 1   
     9     4     5 1   
    10     4    12 1   
    11     4    16 1   
    12     5    17 1   
    13     5    18 1   
    14     5    19 1   
    15     6    12 2   
    16     7     8 1   
    17     7    12 1   
    18     7    20 1   
    19     7    21 1   
    20     8     9 1   
    21     9    22 1   
    22    10    12 2   
@<TRIPOS>SUBSTRUCTURE
     1 WJA         1 TEMP              0 ****  ****    0 ROOT
