@<TRIPOS>MOLECULE
WJA
   22    22     1     0     0
SMALL
No Charge or Current Charge


@<TRIPOS>ATOM
      1 N1         -11.3660     4.4510   -25.1030 nc         1 WJA      -0.354300
      2 C4         -10.3780     5.3680   -23.2550 cc         1 WJA       0.186300
      3 C5          -9.9780     6.4580   -22.3060 c3         1 WJA      -0.136400
      4 N           -8.7380     2.4120   -26.4690 n7         1 WJA      -0.887300
      5 C           -9.5000     2.5020   -27.7300 c3         1 WJA       0.188100
      6 O           -8.3350     1.5490   -24.1630 o          1 WJA      -0.537500
      7 C1         -10.8430     2.0830   -24.8050 c3         1 WJA      -0.338700
      8 C2         -10.7710     3.5140   -24.3890 cd         1 WJA       0.291300
      9 C3         -10.1620     4.0280   -23.2320 cd         1 WJA      -0.233000
     10 O1          -9.4680     0.0790   -25.9020 o          1 WJA      -0.537500
     11 O2         -11.1080     5.6750   -24.3770 os         1 WJA      -0.070700
     12 S           -9.2720     1.3860   -25.2740 s6         1 WJA       1.185100
     13 H7          -9.3830     7.2210   -22.8200 hc         1 WJA       0.063700
     14 H9         -10.8630     6.9440   -21.8790 hc         1 WJA       0.063700
     15 H8          -9.3780     6.0570   -21.4800 hc         1 WJA       0.063700
     16 H3          -7.8280     1.9930   -26.6640 hn         1 WJA       0.495000
     17 H           -8.9890     3.1630   -28.4430 h1         1 WJA       0.051700
     18 H2          -9.6100     1.5180   -28.2070 h1         1 WJA       0.051700
     19 H1         -10.5040     2.9130   -27.5610 h1         1 WJA       0.051700
     20 H4         -11.5050     1.9610   -25.6660 h1         1 WJA       0.117700
     21 H5         -11.2080     1.4690   -23.9780 h1         1 WJA       0.117700
     22 H6          -9.6260     3.4710   -22.4740 ha         1 WJA       0.168000
@<TRIPOS>BOND
     1     1     8 2   
     2     1    11 1   
     3     2     3 1   
     4     2     9 2   
     5     2    11 1   
     6     3    13 1   
     7     3    14 1   
     8     3    15 1   
     9     4     5 1   
    10     4    12 1   
    11     4    16 1   
    12     5    17 1   
    13     5    18 1   
    14     5    19 1   
    15     6    12 2   
    16     7     8 1   
    17     7    12 1   
    18     7    20 1   
    19     7    21 1   
    20     8     9 1   
    21     9    22 1   
    22    10    12 2   
@<TRIPOS>SUBSTRUCTURE
     1 WJA         1 TEMP              0 ****  ****    0 ROOT
