@<TRIPOS>MOLECULE
WJC
   43    45     1     0     0
SMALL
abcg2


@<TRIPOS>ATOM
      1 C13        -35.0520    15.0120    20.0030 ca         1 WJC      -0.227000
      2 C15        -34.5450    17.1850    19.0430 ca         1 WJC      -0.214000
      3 C17        -32.9950    15.3470    18.7730 ca         1 WJC      -0.265000
      4 C20        -30.6080    18.2430    16.6870 ca         1 WJC      -0.080300
      5 C21        -30.6630    18.3620    15.3000 ca         1 WJC      -0.085500
      6 C22        -30.0560    19.4370    14.6580 ca         1 WJC      -0.120500
      7 C24        -29.3300    20.2940    16.7890 ca         1 WJC      -0.120500
      8 C02        -35.3500     9.6940    21.0200 ca         1 WJC      -0.153300
      9 C03        -36.0720    10.7410    20.4440 ca         1 WJC      -0.093000
     10 C04        -35.4470    11.9000    20.0140 ca         1 WJC      -0.200000
     11 C05        -34.0600    12.0700    20.1470 ca         1 WJC       0.334000
     12 C06        -33.3020    11.0080    20.7080 ca         1 WJC      -0.188600
     13 C07        -33.9740     9.8600    21.1300 ca         1 WJC      -0.052000
     14 C08        -31.7840    11.0440    20.8560 c          1 WJC       0.714600
     15 C12        -33.8510    14.4950    19.5000 ca         1 WJC       0.392000
     16 C14        -35.3790    16.3450    19.7620 ca         1 WJC      -0.050000
     17 C16        -33.3360    16.6740    18.5540 ca         1 WJC       0.163100
     18 C19        -31.2780    17.0960    17.3820 c3         1 WJC       0.205900
     19 C23        -29.3900    20.4050    15.4020 ca         1 WJC      -0.111000
     20 C25        -29.9340    19.2160    17.4260 ca         1 WJC      -0.085500
     21 N11        -33.3990    13.2010    19.6980 nu         1 WJC      -0.998000
     22 O09        -31.2450    10.1340    21.5270 o          1 WJC      -0.716500
     23 O10        -31.1510    11.9830    20.2810 o          1 WJC      -0.716500
     24 O18        -32.5540    17.5540    17.8640 os         1 WJC      -0.364100
     25 H1         -35.7100    14.4040    20.6010 ha         1 WJC       0.121000
     26 H2         -34.8020    18.2190    18.8570 ha         1 WJC       0.111000
     27 H3         -32.0720    14.9370    18.3910 ha         1 WJC       0.126000
     28 H4         -31.1810    17.6060    14.7200 ha         1 WJC       0.117500
     29 H5         -30.1020    19.5170    13.5790 ha         1 WJC       0.107500
     30 H6         -28.8080    21.0430    17.3720 ha         1 WJC       0.107500
     31 H7         -36.1290     7.7170    20.6330 hc         1 WJC       0.024033
     32 H8         -35.4550     7.9250    22.2460 hc         1 WJC       0.024033
     33 H9         -37.0300     8.6210    21.8450 hc         1 WJC       0.024033
     34 H10        -37.1460    10.6480    20.3200 ha         1 WJC       0.083000
     35 H11        -36.0380    12.6720    19.5450 ha         1 WJC       0.102000
     36 H12        -33.3740     9.0720    21.5640 ha         1 WJC       0.129000
     37 H13        -36.3090    16.7350    20.1590 ha         1 WJC       0.095000
     38 H14        -31.4270    16.2610    16.6920 h1         1 WJC       0.050200
     39 H15        -30.6790    16.7500    18.2280 h1         1 WJC       0.050200
     40 H16        -28.9150    21.2410    14.9040 ha         1 WJC       0.103000
     41 H17        -29.8820    19.1260    18.5050 ha         1 WJC       0.117500
     42 H18        -32.3850    13.0490    19.7030 hn         1 WJC       0.565000
     43 C01        -36.0270     8.4240    21.4630 c3         1 WJC      -0.024800
@<TRIPOS>BOND
     1     1    15 ar  
     2     1    16 ar  
     3     1    25 1   
     4     2    16 ar  
     5     2    17 ar  
     6     2    26 1   
     7     3    15 ar  
     8     3    17 ar  
     9     3    27 1   
    10     4     5 ar  
    11     4    18 1   
    12     4    20 ar  
    13     5     6 ar  
    14     5    28 1   
    15     6    19 ar  
    16     6    29 1   
    17     7    19 ar  
    18     7    20 ar  
    19     7    30 1   
    20     8     9 ar  
    21     8    13 ar  
    22     8    43 1   
    23     9    10 ar  
    24     9    34 1   
    25    10    11 ar  
    26    10    35 1   
    27    11    12 ar  
    28    11    21 1   
    29    12    13 ar  
    30    12    14 1   
    31    13    36 1   
    32    14    22 1   
    33    14    23 1   
    34    15    21 1   
    35    16    37 1   
    36    17    24 1   
    37    18    24 1   
    38    18    38 1   
    39    18    39 1   
    40    19    40 1   
    41    20    41 1   
    42    21    42 1   
    43    31    43 1   
    44    32    43 1   
    45    33    43 1   
@<TRIPOS>SUBSTRUCTURE
     1 WJC         1 TEMP              0 ****  ****    0 ROOT
