@<TRIPOS>MOLECULE
WJC
   43    45     1     0     0
SMALL
No Charge or Current Charge


@<TRIPOS>ATOM
      1 C13        -34.9860    15.0400    20.1570 ca         1 WJC      -0.227000
      2 C15        -34.4910    17.1840    19.1370 ca         1 WJC      -0.214000
      3 C17        -32.9230    15.3390    18.9120 ca         1 WJC      -0.265000
      4 C20        -30.5980    18.2840    16.6180 ca         1 WJC      -0.080300
      5 C21        -30.8720    18.4820    15.2500 ca         1 WJC      -0.085500
      6 C22        -30.3000    19.5670    14.5620 ca         1 WJC      -0.120500
      7 C24        -29.1750    20.2680    16.6020 ca         1 WJC      -0.120500
      8 C02        -35.3780     9.6240    20.8780 ca         1 WJC      -0.153300
      9 C03        -36.0610    10.6560    20.2150 ca         1 WJC      -0.093000
     10 C04        -35.3920    11.8460    19.8960 ca         1 WJC      -0.200000
     11 C05        -34.0390    12.0290    20.2400 ca         1 WJC       0.334000
     12 C06        -33.3320    10.9850    20.8800 ca         1 WJC      -0.188600
     13 C07        -34.0190     9.7900    21.2010 ca         1 WJC      -0.052000
     14 C08        -31.8690    11.1130    21.2390 c          1 WJC       0.714600
     15 C12        -33.7840    14.5190    19.6520 ca         1 WJC       0.392000
     16 C14        -35.3450    16.3710    19.8960 ca         1 WJC      -0.050000
     17 C16        -33.2790    16.6770    18.6450 ca         1 WJC       0.163100
     18 C19        -31.2160    17.1080    17.3630 c3         1 WJC       0.205900
     19 C23        -29.4510    20.4600    15.2370 ca         1 WJC      -0.111000
     20 C25        -29.7470    19.1830    17.2900 ca         1 WJC      -0.085500
     21 N11        -33.3890    13.2130    19.9090 nu         1 WJC      -0.998000
     22 O09        -31.4540    10.4800    22.1990 o          1 WJC      -0.716500
     23 O10        -31.1450    11.8160    20.5450 o          1 WJC      -0.716500
     24 O18        -32.4780    17.5260    17.9130 os         1 WJC      -0.364100
     25 H1         -35.6370    14.4240    20.7680 ha         1 WJC       0.121000
     26 H2         -34.7650    18.2160    18.9330 ha         1 WJC       0.111000
     27 H3         -31.9920    14.9210    18.5440 ha         1 WJC       0.126000
     28 H4         -31.5310    17.7970    14.7200 ha         1 WJC       0.117500
     29 H5         -30.5150    19.7150    13.5060 ha         1 WJC       0.107500
     30 H6         -28.5190    20.9590    17.1260 ha         1 WJC       0.107500
     31 H7         -35.9630     7.5840    20.4300 hc         1 WJC       0.024033
     32 H8         -35.7120     7.8960    22.1570 hc         1 WJC       0.024033
     33 H9         -37.1730     8.4890    21.3560 hc         1 WJC       0.024033
     34 H10        -37.1070    10.5340    19.9410 ha         1 WJC       0.083000
     35 H11        -35.9300    12.6210    19.3600 ha         1 WJC       0.102000
     36 H12        -33.4900     8.9790    21.6990 ha         1 WJC       0.129000
     37 H13        -36.2780    16.7730    20.2870 ha         1 WJC       0.095000
     38 H14        -31.3560    16.2690    16.6680 h1         1 WJC       0.050200
     39 H15        -30.5350    16.7810    18.1590 h1         1 WJC       0.050200
     40 H16        -29.0080    21.2990    14.7050 ha         1 WJC       0.103000
     41 H17        -29.5300    19.0430    18.3470 ha         1 WJC       0.117500
     42 H18        -32.3680    13.0810    19.9270 hn         1 WJC       0.565000
     43 C01        -36.0960     8.3280    21.2250 c3         1 WJC      -0.024800
@<TRIPOS>BOND
     1     1    15 ar  
     2     1    16 ar  
     3     1    25 1   
     4     2    16 ar  
     5     2    17 ar  
     6     2    26 1   
     7     3    15 ar  
     8     3    17 ar  
     9     3    27 1   
    10     4     5 ar  
    11     4    18 1   
    12     4    20 ar  
    13     5     6 ar  
    14     5    28 1   
    15     6    19 ar  
    16     6    29 1   
    17     7    19 ar  
    18     7    20 ar  
    19     7    30 1   
    20     8     9 ar  
    21     8    13 ar  
    22     8    43 1   
    23     9    10 ar  
    24     9    34 1   
    25    10    11 ar  
    26    10    35 1   
    27    11    12 ar  
    28    11    21 1   
    29    12    13 ar  
    30    12    14 1   
    31    13    36 1   
    32    14    22 1   
    33    14    23 1   
    34    15    21 1   
    35    16    37 1   
    36    17    24 1   
    37    18    24 1   
    38    18    38 1   
    39    18    39 1   
    40    19    40 1   
    41    20    41 1   
    42    21    42 1   
    43    31    43 1   
    44    32    43 1   
    45    33    43 1   
@<TRIPOS>SUBSTRUCTURE
     1 WJC         1 TEMP              0 ****  ****    0 ROOT
