@<TRIPOS>MOLECULE
WJD
   23    23     1     0     0
SMALL
No Charge or Current Charge


@<TRIPOS>ATOM
      1 C4         -11.0920    -9.2740   -14.5780 ca         1 WJD      -0.149500
      2 C5         -11.2570    -8.4210   -13.4740 ca         1 WJD      -0.084500
      3 C6         -10.1430    -8.0360   -12.7120 ca         1 WJD      -0.137000
      4 C7          -8.8650    -8.5050   -13.0570 ca         1 WJD      -0.084500
      5 C8          -8.6990    -9.3580   -14.1620 ca         1 WJD      -0.149500
      6 C          -10.8960   -13.0790   -19.1750 c3         1 WJD       0.150900
      7 O          -10.4900   -12.3200   -18.0220 os         1 WJD      -0.472000
      8 C1          -9.0580   -12.1030   -17.9150 c3         1 WJD       0.065600
      9 C2          -8.6660   -11.2810   -16.6620 c          1 WJD       0.610100
     10 C3          -9.8160    -9.7530   -14.9340 ca         1 WJD      -0.020000
     11 O1          -7.5070   -11.2390   -16.2580 o          1 WJD      -0.588100
     12 H6         -11.9640    -9.5650   -15.1600 ha         1 WJD       0.128000
     13 H7         -12.2480    -8.0580   -13.2090 ha         1 WJD       0.112000
     14 H8         -10.2690    -7.3750   -11.8570 ha         1 WJD       0.114000
     15 H9          -8.0010    -8.2050   -12.4670 ha         1 WJD       0.112000
     16 H10         -7.6970    -9.6980   -14.4000 ha         1 WJD       0.128000
     17 H5         -10.6130   -10.7760   -16.5290 hn         1 WJD       0.173000
     18 H2         -11.9870   -13.2000   -19.1870 h1         1 WJD       0.036033
     19 H1         -10.5990   -12.5710   -20.1010 h1         1 WJD       0.036033
     20 H          -10.4410   -14.0780   -19.1640 h1         1 WJD       0.036033
     21 H3          -8.5250   -13.0610   -17.8590 h1         1 WJD       0.058200
     22 H4          -8.6890   -11.5530   -18.7900 h1         1 WJD       0.058200
     23 N           -9.7280   -10.6120   -16.0650 ns         1 WJD      -0.132000
@<TRIPOS>BOND
     1     1     2 ar  
     2     1    10 ar  
     3     1    12 1   
     4     2     3 ar  
     5     2    13 1   
     6     3     4 ar  
     7     3    14 1   
     8     4     5 ar  
     9     4    15 1   
    10     5    10 ar  
    11     5    16 1   
    12     6     7 1   
    13     6    18 1   
    14     6    19 1   
    15     6    20 1   
    16     7     8 1   
    17     8     9 1   
    18     8    21 1   
    19     8    22 1   
    20     9    11 2   
    21     9    23 1   
    22    10    23 1   
    23    17    23 1   
@<TRIPOS>SUBSTRUCTURE
     1 WJD         1 TEMP              0 ****  ****    0 ROOT
