@<TRIPOS>MOLECULE
WJD
   23    23     1     0     0
SMALL
bcc


@<TRIPOS>ATOM
      1 C4         -11.0980    -9.3300   -14.5600 ca         1 WJD      -0.167500
      2 C5         -11.2360    -8.4860   -13.4710 ca         1 WJD      -0.102500
      3 C6         -10.1180    -8.0780   -12.7540 ca         1 WJD      -0.155000
      4 C7          -8.8670    -8.5280   -13.1470 ca         1 WJD      -0.102500
      5 C8          -8.7120    -9.3750   -14.2370 ca         1 WJD      -0.167500
      6 C          -10.8280   -12.9820   -19.1460 c3         1 WJD       0.127700
      7 O          -10.4690   -12.1460   -18.0710 os         1 WJD      -0.425600
      8 C1          -9.0900   -12.0970   -17.8530 c3         1 WJD       0.042400
      9 C2          -8.7420   -11.2060   -16.6750 c          1 WJD       0.677100
     10 C3          -9.8370    -9.7840   -14.9550 ca         1 WJD       0.072600
     11 O1          -7.5750   -11.0570   -16.3560 o          1 WJD      -0.588100
     12 H6         -11.9770    -9.6410   -15.1130 ha         1 WJD       0.146000
     13 H7         -12.2230    -8.1490   -13.1840 ha         1 WJD       0.130000
     14 H8         -10.2230    -7.4200   -11.9020 ha         1 WJD       0.132000
     15 H9          -7.9860    -8.2210   -12.5980 ha         1 WJD       0.130000
     16 H10         -7.7250    -9.7050   -14.5160 ha         1 WJD       0.146000
     17 H5         -10.7010   -10.8620   -16.4640 hn         1 WJD       0.339500
     18 H2         -11.9120   -12.9570   -19.2370 h1         1 WJD       0.036033
     19 H1         -10.3890   -12.6400   -20.0890 h1         1 WJD       0.036033
     20 H          -10.5130   -14.0170   -18.9780 h1         1 WJD       0.036033
     21 H3          -8.6750   -13.0920   -17.6420 h1         1 WJD       0.058200
     22 H4          -8.5510   -11.7100   -18.7280 h1         1 WJD       0.058200
     23 N           -9.8010   -10.6390   -16.0610 ns         1 WJD      -0.458100
@<TRIPOS>BOND
     1     1     2 ar  
     2     1    10 ar  
     3     1    12 1   
     4     2     3 ar  
     5     2    13 1   
     6     3     4 ar  
     7     3    14 1   
     8     4     5 ar  
     9     4    15 1   
    10     5    10 ar  
    11     5    16 1   
    12     6     7 1   
    13     6    18 1   
    14     6    19 1   
    15     6    20 1   
    16     7     8 1   
    17     8     9 1   
    18     8    21 1   
    19     8    22 1   
    20     9    11 2   
    21     9    23 1   
    22    10    23 1   
    23    17    23 1   
@<TRIPOS>SUBSTRUCTURE
     1 WJD         1 TEMP              0 ****  ****    0 ROOT
