@<TRIPOS>MOLECULE
WJF
   63    66     1     0     0
SMALL
No Charge or Current Charge


@<TRIPOS>ATOM
      1 N1         -35.0580   -30.2700   -68.9360 n3         1 WJF      -0.724600
      2 N3         -47.3010   -26.3660   -67.5730 nc         1 WJF      -0.361300
      3 C4         -32.7830   -31.3920   -68.8730 c6         1 WJF       0.132300
      4 C5         -33.3150   -32.5170   -69.8070 c6         1 WJF       0.175300
      5 C6         -33.3950   -29.6860   -67.0270 c3         1 WJF       0.156600
      6 C7         -36.1680   -29.5350   -68.2580 c3         1 WJF       0.180800
      7 C8         -36.9810   -30.3460   -67.2190 c3         1 WJF      -0.073100
      8 C10        -39.3630   -29.4640   -67.1220 ca         1 WJF      -0.106500
      9 C13        -38.7860   -27.9520   -64.8280 ca         1 WJF      -0.103000
     10 C17        -44.1610   -26.4600   -63.7780 ca         1 WJF       0.317000
     11 C20        -46.3440   -25.2220   -65.0470 ca         1 WJF      -0.116000
     12 C21        -45.8480   -24.7190   -63.8350 ca         1 WJF       0.159000
     13 C22        -44.7620   -25.3350   -63.2010 ca         1 WJF      -0.167000
     14 C24        -46.4780   -28.1310   -68.6260 cc         1 WJF       0.487900
     15 C1         -34.4400   -31.9630   -70.7350 c6         1 WJF       0.171300
     16 C11        -40.3640   -28.6770   -66.5280 ca         1 WJF      -0.103000
     17 C12        -40.0810   -27.9160   -65.3780 ca         1 WJF      -0.082300
     18 C14        -37.7850   -28.7390   -65.4230 ca         1 WJF      -0.106500
     19 C16        -42.0190   -27.8860   -63.7350 c3         1 WJF       0.211800
     20 C18        -44.6610   -26.9710   -64.9900 ca         1 WJF      -0.140000
     21 C19        -45.7570   -26.3610   -65.6460 ca         1 WJF      -0.097500
     22 C2         -35.5610   -31.3360   -69.8560 c6         1 WJF       0.135800
     23 C23        -46.2750   -26.9030   -66.9270 cd         1 WJF       0.616500
     24 C3         -33.9550   -30.7710   -68.0280 c6         1 WJF       0.173500
     25 C9         -38.0680   -29.5000   -66.5720 ca         1 WJF      -0.076300
     26 N2         -43.0780   -27.0560   -63.1250 nu         1 WJF      -0.953200
     27 N4         -45.7290   -28.0060   -67.5470 nd         1 WJF      -0.722000
     28 O1         -34.9910   -33.0010   -71.5800 oh         1 WJF      -0.707000
     29 O2         -32.2070   -33.0570   -70.5560 oh         1 WJF      -0.648000
     30 O3         -31.7180   -31.9250   -68.0460 oh         1 WJF      -0.738000
     31 O4         -32.7270   -28.5870   -67.6770 oh         1 WJF      -0.656000
     32 O5         -47.4490   -27.1810   -68.7160 os         1 WJF      -0.106700
     33 Cl1        -46.5940   -23.3030   -63.1050 cl         1 WJF      -0.208000
     34 H2         -32.3860   -30.5910   -69.5170 h1         1 WJF       0.074700
     35 H3         -33.7520   -33.3030   -69.1740 h1         1 WJF       0.053700
     36 H4         -32.7020   -30.1800   -66.3340 h1         1 WJF       0.027700
     37 H5         -34.2190   -29.3120   -66.4070 h1         1 WJF       0.027700
     38 H6         -35.7770   -28.6360   -67.7650 h1         1 WJF       0.061200
     39 H7         -36.8720   -29.1670   -69.0180 h1         1 WJF       0.061200
     40 H8         -37.4300   -31.2210   -67.7040 hc         1 WJF       0.049200
     41 H9         -36.3090   -30.7350   -66.4450 hc         1 WJF       0.049200
     42 H10        -39.5950   -30.0450   -68.0120 ha         1 WJF       0.111000
     43 H11        -38.5540   -27.3710   -63.9380 ha         1 WJF       0.114000
     44 H12        -40.7260   -26.2150   -64.2090 hc         1 WJF       0.055200
     45 H13        -41.8210   -26.6500   -65.5090 hc         1 WJF       0.055200
     46 H14        -47.1890   -24.7200   -65.5140 ha         1 WJF       0.148000
     47 H15        -44.3880   -24.9340   -62.2650 ha         1 WJF       0.129000
     48 H17        -34.0070   -31.1630   -71.3550 h1         1 WJF       0.059700
     49 H18        -41.3620   -28.6600   -66.9620 ha         1 WJF       0.114000
     50 H19        -36.7880   -28.7560   -64.9880 ha         1 WJF       0.111000
     51 H20        -42.4570   -28.7530   -64.2490 h1         1 WJF       0.059700
     52 H21        -41.3550   -28.2770   -62.9500 h1         1 WJF       0.059700
     53 H22        -44.1970   -27.8500   -65.4260 ha         1 WJF       0.140000
     54 H23        -36.3310   -30.9190   -70.5220 h1         1 WJF       0.041200
     55 H24        -36.0390   -32.1400   -69.2770 h1         1 WJF       0.041200
     56 H25        -34.3600   -31.5790   -67.4020 h1         1 WJF       0.039700
     57 H26        -42.8590   -26.6590   -62.2090 hn         1 WJF       0.471000
     58 H27        -35.4520   -32.5490   -72.3240 ho         1 WJF       0.500000
     59 H28        -31.4690   -33.0710   -69.9050 ho         1 WJF       0.452000
     60 H29        -31.2210   -31.1510   -67.6880 ho         1 WJF       0.511000
     61 H30        -32.5440   -27.9120   -66.9860 ho         1 WJF       0.440000
     62 C15        -41.1700   -27.0700   -64.7320 c3         1 WJF      -0.068100
     63 H16        -46.4030   -28.8760   -69.4100 h5         1 WJF       0.087100
@<TRIPOS>BOND
     1     1     6 1   
     2     1    22 1   
     3     1    24 1   
     4     2    23 2   
     5     2    32 1   
     6     3     4 1   
     7     3    24 1   
     8     3    30 1   
     9     3    34 1   
    10     4    15 1   
    11     4    29 1   
    12     4    35 1   
    13     5    24 1   
    14     5    31 1   
    15     5    36 1   
    16     5    37 1   
    17     6     7 1   
    18     6    38 1   
    19     6    39 1   
    20     7    25 1   
    21     7    40 1   
    22     7    41 1   
    23     8    16 ar  
    24     8    25 ar  
    25     8    42 1   
    26     9    17 ar  
    27     9    18 ar  
    28     9    43 1   
    29    10    13 ar  
    30    10    20 ar  
    31    10    26 1   
    32    11    12 ar  
    33    11    21 ar  
    34    11    46 1   
    35    12    13 ar  
    36    12    33 1   
    37    13    47 1   
    38    14    27 2   
    39    14    32 1   
    40    14    63 1   
    41    15    22 1   
    42    15    28 1   
    43    15    48 1   
    44    16    17 ar  
    45    16    49 1   
    46    17    62 1   
    47    18    25 ar  
    48    18    50 1   
    49    19    26 1   
    50    19    51 1   
    51    19    52 1   
    52    19    62 1   
    53    20    21 ar  
    54    20    53 1   
    55    21    23 1   
    56    22    54 1   
    57    22    55 1   
    58    23    27 1   
    59    24    56 1   
    60    26    57 1   
    61    28    58 1   
    62    29    59 1   
    63    30    60 1   
    64    31    61 1   
    65    44    62 1   
    66    45    62 1   
@<TRIPOS>SUBSTRUCTURE
     1 WJF         1 TEMP              0 ****  ****    0 ROOT
