@<TRIPOS>MOLECULE
WJF
   63    66     1     0     0
SMALL
abcg2


@<TRIPOS>ATOM
      1 N1         -35.2760   -30.4360   -68.8730 n3         1 WJF      -0.724600
      2 N3         -46.8480   -26.2190   -67.7970 nc         1 WJF      -0.361300
      3 C4         -32.9430   -31.0770   -69.0220 c6         1 WJF       0.132300
      4 C5         -33.3070   -32.3050   -69.8440 c6         1 WJF       0.175300
      5 C6         -33.6670   -29.4720   -67.2210 c3         1 WJF       0.156600
      6 C7         -36.3850   -29.7620   -68.2050 c3         1 WJF       0.180800
      7 C8         -37.0460   -30.5260   -67.0370 c3         1 WJF      -0.073100
      8 C10        -39.3800   -29.5660   -66.9320 ca         1 WJF      -0.106500
      9 C13        -38.7740   -28.1140   -64.6560 ca         1 WJF      -0.103000
     10 C17        -44.1170   -26.5350   -63.7800 ca         1 WJF       0.317000
     11 C20        -46.2520   -25.2670   -65.1350 ca         1 WJF      -0.116000
     12 C21        -45.8990   -24.9120   -63.8430 ca         1 WJF       0.159000
     13 C22        -44.8590   -25.5140   -63.1600 ca         1 WJF      -0.167000
     14 C24        -45.7060   -27.6830   -68.9590 cc         1 WJF       0.487900
     15 C1         -34.6220   -32.1000   -70.5620 c6         1 WJF       0.171300
     16 C11        -40.3360   -28.7350   -66.3590 ca         1 WJF      -0.103000
     17 C12        -40.0480   -27.9930   -65.2110 ca         1 WJF      -0.082300
     18 C14        -37.8160   -28.9410   -65.2330 ca         1 WJF      -0.106500
     19 C16        -42.0780   -27.9550   -63.7160 c3         1 WJF       0.211800
     20 C18        -44.4570   -26.9050   -65.0910 ca         1 WJF      -0.140000
     21 C19        -45.5100   -26.2780   -65.7520 ca         1 WJF      -0.097500
     22 C2         -35.6860   -31.6480   -69.5670 c6         1 WJF       0.135800
     23 C23        -45.8310   -26.6920   -67.1210 cd         1 WJF       0.616500
     24 C3         -34.0750   -30.6680   -68.0660 c6         1 WJF       0.173500
     25 C9         -38.1020   -29.6830   -66.3790 ca         1 WJF      -0.076300
     26 N2         -43.1150   -27.1620   -63.0790 nu         1 WJF      -0.953200
     27 N4         -45.0890   -27.6230   -67.8280 nd         1 WJF      -0.722000
     28 O1         -34.9940   -33.3390   -71.1700 oh         1 WJF      -0.707000
     29 O2         -32.2820   -32.5890   -70.7930 oh         1 WJF      -0.648000
     30 O3         -31.7450   -31.4210   -68.3150 oh         1 WJF      -0.738000
     31 O4         -33.4000   -28.3440   -68.0580 oh         1 WJF      -0.656000
     32 O5         -46.7690   -26.8810   -69.0330 os         1 WJF      -0.106700
     33 CL1        -46.8010   -23.6380   -63.0440 cl         1 WJF      -0.208000
     34 H2         -32.7430   -30.2460   -69.7020 h1         1 WJF       0.074700
     35 H3         -33.4200   -33.1550   -69.1550 h1         1 WJF       0.053700
     36 H4         -32.7730   -29.7510   -66.6550 h1         1 WJF       0.027700
     37 H5         -34.4490   -29.2350   -66.4960 h1         1 WJF       0.027700
     38 H6         -36.0390   -28.7920   -67.8460 h1         1 WJF       0.061200
     39 H7         -37.1450   -29.5610   -68.9630 h1         1 WJF       0.061200
     40 H8         -37.4860   -31.4510   -67.4140 hc         1 WJF       0.049200
     41 H9         -36.2880   -30.8010   -66.3020 hc         1 WJF       0.049200
     42 H10        -39.6280   -30.1310   -67.8240 ha         1 WJF       0.111000
     43 H11        -38.5280   -27.5500   -63.7630 ha         1 WJF       0.114000
     44 H12        -40.6270   -26.3810   -63.9260 hc         1 WJF       0.055200
     45 H13        -41.6610   -26.5910   -65.3350 hc         1 WJF       0.055200
     46 H14        -47.0640   -24.7730   -65.6460 ha         1 WJF       0.148000
     47 H15        -44.6140   -25.2040   -62.1530 ha         1 WJF       0.129000
     48 H17        -34.4890   -31.3300   -71.3290 h1         1 WJF       0.059700
     49 H18        -41.3190   -28.6590   -66.8100 ha         1 WJF       0.114000
     50 H19        -36.8300   -29.0120   -64.7870 ha         1 WJF       0.111000
     51 H20        -42.5380   -28.7310   -64.3300 h1         1 WJF       0.059700
     52 H21        -41.5290   -28.4650   -62.9240 h1         1 WJF       0.059700
     53 H22        -43.9060   -27.6770   -65.6040 ha         1 WJF       0.140000
     54 H23        -36.6130   -31.4450   -70.1080 h1         1 WJF       0.041200
     55 H24        -35.8830   -32.4830   -68.8760 h1         1 WJF       0.041200
     56 H25        -34.2230   -31.5000   -67.3550 h1         1 WJF       0.039700
     57 H26        -42.8300   -26.6910   -62.2340 hn         1 WJF       0.471000
     58 H27        -35.7700   -33.1810   -71.7220 ho         1 WJF       0.500000
     59 H28        -31.4460   -32.5620   -70.3060 ho         1 WJF       0.452000
     60 H29        -31.2070   -30.6290   -68.2040 ho         1 WJF       0.511000
     61 H30        -33.1010   -27.6190   -67.4960 ho         1 WJF       0.440000
     62 C15        -41.0970   -27.1280   -64.5690 c3         1 WJF      -0.068100
     63 H16        -45.4750   -28.2860   -69.8240 h5         1 WJF       0.087100
@<TRIPOS>BOND
     1     1     6 1   
     2     1    22 1   
     3     1    24 1   
     4     2    23 2   
     5     2    32 1   
     6     3     4 1   
     7     3    24 1   
     8     3    30 1   
     9     3    34 1   
    10     4    15 1   
    11     4    29 1   
    12     4    35 1   
    13     5    24 1   
    14     5    31 1   
    15     5    36 1   
    16     5    37 1   
    17     6     7 1   
    18     6    38 1   
    19     6    39 1   
    20     7    25 1   
    21     7    40 1   
    22     7    41 1   
    23     8    16 ar  
    24     8    25 ar  
    25     8    42 1   
    26     9    17 ar  
    27     9    18 ar  
    28     9    43 1   
    29    10    13 ar  
    30    10    20 ar  
    31    10    26 1   
    32    11    12 ar  
    33    11    21 ar  
    34    11    46 1   
    35    12    13 ar  
    36    12    33 1   
    37    13    47 1   
    38    14    27 2   
    39    14    32 1   
    40    14    63 1   
    41    15    22 1   
    42    15    28 1   
    43    15    48 1   
    44    16    17 ar  
    45    16    49 1   
    46    17    62 1   
    47    18    25 ar  
    48    18    50 1   
    49    19    26 1   
    50    19    51 1   
    51    19    52 1   
    52    19    62 1   
    53    20    21 ar  
    54    20    53 1   
    55    21    23 1   
    56    22    54 1   
    57    22    55 1   
    58    23    27 1   
    59    24    56 1   
    60    26    57 1   
    61    28    58 1   
    62    29    59 1   
    63    30    60 1   
    64    31    61 1   
    65    44    62 1   
    66    45    62 1   
@<TRIPOS>SUBSTRUCTURE
     1 WJF         1 TEMP              0 ****  ****    0 ROOT
