@<TRIPOS>MOLECULE
WJG
   31    32     1     0     0
SMALL
No Charge or Current Charge


@<TRIPOS>ATOM
      1 C4         -13.4650     4.6550   -26.6250 ca         1 WJG      -0.113300
      2 C5         -13.3210     3.6080   -25.6880 ca         1 WJG      -0.059500
      3 C6         -12.1960     2.7650   -25.7310 ca         1 WJG      -0.173500
      4 C7         -14.6800     5.5900   -26.6270 c3         1 WJG       0.264100
      5 C8         -15.7950     5.0800   -27.5380 ca         1 WJG      -0.115300
      6 C10        -17.2820     5.4250   -29.4480 ca         1 WJG      -0.106500
      7 C13        -16.3720     3.8060   -27.3410 ca         1 WJG      -0.107500
      8 N          -15.2070     5.8490   -25.2780 n8         1 WJG      -0.994200
      9 C           -9.0540     2.1940   -27.6540 c3         1 WJG       0.148900
     10 C1         -11.2040     2.9490   -26.7050 ca         1 WJG       0.142100
     11 C11        -17.8500     4.1570   -29.2440 ca         1 WJG      -0.110000
     12 C12        -17.3940     3.3480   -28.1900 ca         1 WJG      -0.106500
     13 C2         -11.3430     3.9900   -27.6480 ca         1 WJG      -0.173500
     14 C3         -12.4670     4.8330   -27.6050 ca         1 WJG      -0.059500
     15 C9         -16.2600     5.8840   -28.6000 ca         1 WJG      -0.107500
     16 H5         -14.0760     3.4390   -24.9240 ha         1 WJG       0.113500
     17 H6         -12.0950     1.9630   -25.0050 ha         1 WJG       0.121000
     18 H7         -14.3390     6.5600   -27.0190 h1         1 WJG       0.068700
     19 H11        -17.6340     6.0520   -30.2650 ha         1 WJG       0.112500
     20 H14        -16.0290     3.1670   -26.5310 ha         1 WJG       0.109500
     21 H9         -16.0170     6.4700   -25.3700 hn         1 WJG       0.399500
     22 H15        -15.6170     4.9780   -24.9280 hn         1 WJG       0.399500
     23 H1          -8.3010     1.4170   -27.4680 h1         1 WJG       0.040033
     24 H           -9.4310     2.0640   -28.6770 h1         1 WJG       0.040033
     25 H2          -8.5590     3.1710   -27.5810 h1         1 WJG       0.040033
     26 H12        -18.6410     3.8010   -29.9010 ha         1 WJG       0.113000
     27 H13        -17.8330     2.3650   -28.0310 ha         1 WJG       0.112500
     28 H3         -10.5950     4.1590   -28.4170 ha         1 WJG       0.121000
     29 H4         -12.5650     5.6290   -28.3410 ha         1 WJG       0.113500
     30 H10        -15.8280     6.8690   -28.7710 ha         1 WJG       0.109500
     31 O          -10.1240     2.0900   -26.6980 os         1 WJG      -0.342100
@<TRIPOS>BOND
     1     1     2 ar  
     2     1     4 1   
     3     1    14 ar  
     4     2     3 ar  
     5     2    16 1   
     6     3    10 ar  
     7     3    17 1   
     8     4     5 1   
     9     4     8 1   
    10     4    18 1   
    11     5     7 ar  
    12     5    15 ar  
    13     6    11 ar  
    14     6    15 ar  
    15     6    19 1   
    16     7    12 ar  
    17     7    20 1   
    18     8    21 1   
    19     8    22 1   
    20     9    23 1   
    21     9    24 1   
    22     9    25 1   
    23     9    31 1   
    24    10    13 ar  
    25    10    31 1   
    26    11    12 ar  
    27    11    26 1   
    28    12    27 1   
    29    13    14 ar  
    30    13    28 1   
    31    14    29 1   
    32    15    30 1   
@<TRIPOS>SUBSTRUCTURE
     1 WJG         1 TEMP              0 ****  ****    0 ROOT
