@<TRIPOS>MOLECULE
WJG
   31    32     1     0     0
SMALL
bcc


@<TRIPOS>ATOM
      1 C4         -13.4720     4.6260   -26.8640 ca         1 WJG      -0.113300
      2 C5         -13.5850     3.2480   -26.6780 ca         1 WJG      -0.077500
      3 C6         -12.4880     2.4150   -26.7930 ca         1 WJG      -0.191500
      4 C7         -14.6630     5.5440   -26.6830 c3         1 WJG       0.264100
      5 C8         -15.8730     5.0060   -27.4350 ca         1 WJG      -0.115300
      6 C10        -16.9140     4.4900   -29.5580 ca         1 WJG      -0.124500
      7 C13        -17.0100     4.5370   -26.7880 ca         1 WJG      -0.125500
      8 N          -14.8440     5.8080   -25.2670 n8         1 WJG      -0.883800
      9 C           -8.9430     2.5430   -27.5710 c3         1 WJG       0.125700
     10 C1         -11.2340     2.9430   -27.1090 ca         1 WJG       0.142100
     11 C11        -18.0450     4.0160   -28.9010 ca         1 WJG      -0.128000
     12 C12        -18.0880     4.0410   -27.5160 ca         1 WJG      -0.124500
     13 C2         -11.1050     4.3150   -27.3030 ca         1 WJG      -0.191500
     14 C3         -12.2200     5.1360   -27.1750 ca         1 WJG      -0.077500
     15 C9         -15.8420     4.9780   -28.8300 ca         1 WJG      -0.125500
     16 H5         -14.5500     2.8090   -26.4470 ha         1 WJG       0.131500
     17 H6         -12.5960     1.3470   -26.6470 ha         1 WJG       0.139000
     18 H7         -14.4050     6.5010   -27.1490 h1         1 WJG       0.068700
     19 H11        -16.8710     4.4800   -30.6400 ha         1 WJG       0.130500
     20 H14        -17.0710     4.5550   -25.7070 ha         1 WJG       0.127500
     21 H9         -15.6430     6.4130   -25.1210 hn         1 WJG       0.344300
     22 H15        -15.0380     4.9480   -24.7660 hn         1 WJG       0.344300
     23 H1          -8.2870     1.6770   -27.6190 h1         1 WJG       0.040033
     24 H           -8.9530     3.0310   -28.5490 h1         1 WJG       0.040033
     25 H2          -8.5460     3.2430   -26.8320 h1         1 WJG       0.040033
     26 H12        -18.8850     3.6330   -29.4660 ha         1 WJG       0.131000
     27 H13        -18.9630     3.6760   -26.9940 ha         1 WJG       0.130500
     28 H3         -10.1530     4.7630   -27.5550 ha         1 WJG       0.139000
     29 H4         -12.1000     6.2020   -27.3260 ha         1 WJG       0.131500
     30 H10        -14.9640     5.3440   -29.3500 ha         1 WJG       0.127500
     31 O          -10.2210     2.0600   -27.2100 os         1 WJG      -0.318900
@<TRIPOS>BOND
     1     1     2 ar  
     2     1     4 1   
     3     1    14 ar  
     4     2     3 ar  
     5     2    16 1   
     6     3    10 ar  
     7     3    17 1   
     8     4     5 1   
     9     4     8 1   
    10     4    18 1   
    11     5     7 ar  
    12     5    15 ar  
    13     6    11 ar  
    14     6    15 ar  
    15     6    19 1   
    16     7    12 ar  
    17     7    20 1   
    18     8    21 1   
    19     8    22 1   
    20     9    23 1   
    21     9    24 1   
    22     9    25 1   
    23     9    31 1   
    24    10    13 ar  
    25    10    31 1   
    26    11    12 ar  
    27    11    26 1   
    28    12    27 1   
    29    13    14 ar  
    30    13    28 1   
    31    14    29 1   
    32    15    30 1   
@<TRIPOS>SUBSTRUCTURE
     1 WJG         1 TEMP              0 ****  ****    0 ROOT
