@<TRIPOS>MOLECULE
WJH
   49    53     1     0     0
SMALL
abcg2


@<TRIPOS>ATOM
      1 C10          6.1360     7.8180    23.8250 cx         1 WJH      -0.190000
      2 C11          7.3710     7.2620    23.1470 cx         1 WJH      -0.103900
      3 C13          0.5300     5.0650    20.2150 cc         1 WJH      -0.285300
      4 C15          0.1790     5.6360    22.6270 c6         1 WJH      -0.014100
      5 C16         -1.3060     5.4210    22.3160 c6         1 WJH      -0.071400
      6 C17         -1.5220     4.2570    21.3510 c6         1 WJH      -0.071400
      7 C18         -0.8580     4.5420    20.0000 c6         1 WJH       0.009900
      8 C19          4.6850     5.8830    18.3080 c          1 WJH       0.625300
      9 C20          6.1020     6.2740    18.1490 ce         1 WJH      -0.258400
     10 C22          6.6090     6.5330    16.9320 cf         1 WJH      -0.062400
     11 C23          8.0380     6.9760    16.7680 c6         1 WJH       0.168800
     12 C25          8.4420     6.3960    19.0080 c6         1 WJH       0.159600
     13 C26          6.9710     6.3890    19.3840 c6         1 WJH      -0.060200
     14 C27          5.8780     6.4560    15.6010 c          1 WJH       0.712200
     15 S1           1.7050     5.0890    18.9280 ss         1 WJH       0.316000
     16 C2           2.9040     5.7590    19.9760 cc         1 WJH       0.050600
     17 C3           2.4080     5.9540    21.2640 cd         1 WJH      -0.337500
     18 C5           4.8210     7.2910    23.4580 cc         1 WJH       0.619300
     19 N6           3.8450     7.1780    24.3210 nd         1 WJH      -0.413300
     20 O7           2.7800     6.6370    23.5530 os         1 WJH      -0.122700
     21 N8           4.4940     6.8740    22.1940 nc         1 WJH      -0.808000
     22 C9           3.2420     6.4860    22.3010 cd         1 WJH       0.636500
     23 C12          6.9100     8.6440    22.8190 cx         1 WJH      -0.103900
     24 C14          1.0250     5.5540    21.3840 cd         1 WJH      -0.021300
     25 O21          3.9700     5.4390    17.4120 o          1 WJH      -0.540100
     26 O24          8.6850     7.3450    17.9730 os         1 WJH      -0.473000
     27 O28          6.0930     5.4240    14.9230 o          1 WJH      -0.698500
     28 O29          5.2200     7.4700    15.2720 o          1 WJH      -0.698500
     29 H31          6.2240     8.0950    24.8660 hc         1 WJH       0.093700
     30 H32          8.2490     7.1420    23.7660 hc         1 WJH       0.080700
     31 H33          7.2160     6.4900    22.4070 hc         1 WJH       0.080700
     32 H37          0.5230     4.8850    23.3470 hc         1 WJH       0.055200
     33 H36          0.3200     6.6030    23.1120 hc         1 WJH       0.055200
     34 H38         -1.8490     5.2520    23.2480 hc         1 WJH       0.036700
     35 H39         -1.7160     6.3330    21.8690 hc         1 WJH       0.036700
     36 H40         -1.0950     3.3450    21.7800 hc         1 WJH       0.036200
     37 H41         -2.5890     4.0740    21.2030 hc         1 WJH       0.036200
     38 H42         -1.4520     5.2770    19.4450 hc         1 WJH       0.044700
     39 H43         -0.8340     3.6380    19.3860 hc         1 WJH       0.044700
     40 H44          8.5940     6.1700    16.2660 h1         1 WJH       0.069700
     41 H45          8.0720     7.8520    16.1160 h1         1 WJH       0.069700
     42 H47          8.7540     5.3990    18.6740 h1         1 WJH       0.034200
     43 H46          9.0620     6.6910    19.8540 h1         1 WJH       0.034200
     44 H49          6.7360     7.3010    19.9410 hc         1 WJH       0.039700
     45 H48          6.7870     5.5480    20.0580 hc         1 WJH       0.039700
     46 H30          4.7590     6.4600    20.3130 hn         1 WJH       0.366500
     47 H35          6.4440     8.8060    21.8570 hc         1 WJH       0.080700
     48 H34          7.4680     9.4830    23.2100 hc         1 WJH       0.080700
     49 N4           4.1830     6.0520    19.5780 ns         1 WJH      -0.381100
@<TRIPOS>BOND
     1     1     2 1   
     2     1    18 1   
     3     1    23 1   
     4     1    29 1   
     5     2    23 1   
     6     2    30 1   
     7     2    31 1   
     8     3     7 1   
     9     3    15 1   
    10     3    24 2   
    11     4     5 1   
    12     4    24 1   
    13     4    32 1   
    14     4    33 1   
    15     5     6 1   
    16     5    34 1   
    17     5    35 1   
    18     6     7 1   
    19     6    36 1   
    20     6    37 1   
    21     7    38 1   
    22     7    39 1   
    23     8     9 1   
    24     8    25 2   
    25     8    49 1   
    26     9    10 2   
    27     9    13 1   
    28    10    11 1   
    29    10    14 1   
    30    11    26 1   
    31    11    40 1   
    32    11    41 1   
    33    12    13 1   
    34    12    26 1   
    35    12    42 1   
    36    12    43 1   
    37    13    44 1   
    38    13    45 1   
    39    14    27 1   
    40    14    28 1   
    41    15    16 1   
    42    16    17 2   
    43    16    49 1   
    44    17    22 1   
    45    17    24 1   
    46    18    19 2   
    47    18    21 1   
    48    19    20 1   
    49    20    22 1   
    50    21    22 2   
    51    23    47 1   
    52    23    48 1   
    53    46    49 1   
@<TRIPOS>SUBSTRUCTURE
     1 WJH         1 TEMP              0 ****  ****    0 ROOT
