@<TRIPOS>MOLECULE
WJH
   49    53     1     0     0
SMALL
No Charge or Current Charge


@<TRIPOS>ATOM
      1 C10          6.1040     7.9340    23.6050 cx         1 WJH      -0.190000
      2 C11          7.3550     7.3310    23.0000 cx         1 WJH      -0.103900
      3 C13          0.4150     5.0070    20.2330 cc         1 WJH      -0.285300
      4 C15          0.1930     5.6760    22.6660 c6         1 WJH      -0.014100
      5 C16         -1.3190     5.3810    22.4890 c6         1 WJH      -0.071400
      6 C17         -1.5540     4.1720    21.5590 c6         1 WJH      -0.071400
      7 C18         -0.9910     4.4590    20.1480 c6         1 WJH       0.009900
      8 C19          4.6480     5.9050    18.1840 c          1 WJH       0.625300
      9 C20          6.1030     6.3090    18.0880 ce         1 WJH      -0.258400
     10 C22          6.7680     6.6630    16.9190 cf         1 WJH      -0.062400
     11 C23          8.3050     6.8510    16.9340 c6         1 WJH       0.168800
     12 C25          8.4160     6.0360    19.1880 c6         1 WJH       0.159600
     13 C26          6.9030     6.2170    19.4100 c6         1 WJH      -0.060200
     14 C27          6.1260     6.9600    15.5750 c          1 WJH       0.712200
     15 S1           1.5270     5.0190    18.8730 ss         1 WJH       0.316000
     16 C2           2.7950     5.7510    19.8660 cc         1 WJH       0.050600
     17 C3           2.3460     5.9690    21.1610 cd         1 WJH      -0.337500
     18 C5           4.7640     7.3800    23.3010 cc         1 WJH       0.619300
     19 N6           3.8090     7.2780    24.2060 nd         1 WJH      -0.413300
     20 O7           2.7490     6.7140    23.4740 os         1 WJH      -0.122700
     21 N8           4.4440     6.9390    22.0470 nc         1 WJH      -0.808000
     22 C9           3.1940     6.5430    22.1980 cd         1 WJH       0.636500
     23 C12          6.8930     8.7050    22.5660 cx         1 WJH      -0.103900
     24 C14          0.9770     5.5610    21.3620 cd         1 WJH      -0.021300
     25 O21          4.0280     5.4170    17.2520 o          1 WJH      -0.540100
     26 O24          8.8710     7.0210    18.2500 os         1 WJH      -0.473000
     27 O28          6.8440     6.9540    14.5830 o          1 WJH      -0.698500
     28 O29          4.9660     7.3420    15.5250 o          1 WJH      -0.698500
     29 H31          6.1800     8.2850    24.6310 hc         1 WJH       0.093700
     30 H32          8.2420     7.2700    23.6270 hc         1 WJH       0.080700
     31 H33          7.2380     6.5030    22.3060 hc         1 WJH       0.080700
     32 H37          0.6080     4.9780    23.4050 hc         1 WJH       0.055200
     33 H36          0.2880     6.6820    23.0930 hc         1 WJH       0.055200
     34 H38         -1.7810     5.2010    23.4700 hc         1 WJH       0.036700
     35 H39         -1.8180     6.2650    22.0680 hc         1 WJH       0.036700
     36 H40         -1.0680     3.2810    21.9800 hc         1 WJH       0.036200
     37 H41         -2.6270     3.9450    21.4940 hc         1 WJH       0.036200
     38 H42         -1.6430     5.1800    19.6360 hc         1 WJH       0.044700
     39 H43         -1.0190     3.5390    19.5480 hc         1 WJH       0.044700
     40 H44          8.7730     5.9740    16.4620 h1         1 WJH       0.069700
     41 H45          8.5800     7.7280    16.3310 h1         1 WJH       0.069700
     42 H47          8.6310     5.0310    18.7960 h1         1 WJH       0.034200
     43 H46          8.9560     6.1620    20.1380 h1         1 WJH       0.034200
     44 H49          6.7370     7.1340    19.9870 hc         1 WJH       0.039700
     45 H48          6.5470     5.3810    20.0280 hc         1 WJH       0.039700
     46 H30          4.6970     6.4760    20.1300 hn         1 WJH       0.366500
     47 H35          6.4630     8.8170    21.5740 hc         1 WJH       0.080700
     48 H34          7.4710     9.5620    22.9040 hc         1 WJH       0.080700
     49 N4           4.0810     6.0650    19.4360 ns         1 WJH      -0.381100
@<TRIPOS>BOND
     1     1     2 1   
     2     1    18 1   
     3     1    23 1   
     4     1    29 1   
     5     2    23 1   
     6     2    30 1   
     7     2    31 1   
     8     3     7 1   
     9     3    15 1   
    10     3    24 2   
    11     4     5 1   
    12     4    24 1   
    13     4    32 1   
    14     4    33 1   
    15     5     6 1   
    16     5    34 1   
    17     5    35 1   
    18     6     7 1   
    19     6    36 1   
    20     6    37 1   
    21     7    38 1   
    22     7    39 1   
    23     8     9 1   
    24     8    25 2   
    25     8    49 1   
    26     9    10 2   
    27     9    13 1   
    28    10    11 1   
    29    10    14 1   
    30    11    26 1   
    31    11    40 1   
    32    11    41 1   
    33    12    13 1   
    34    12    26 1   
    35    12    42 1   
    36    12    43 1   
    37    13    44 1   
    38    13    45 1   
    39    14    27 1   
    40    14    28 1   
    41    15    16 1   
    42    16    17 2   
    43    16    49 1   
    44    17    22 1   
    45    17    24 1   
    46    18    19 2   
    47    18    21 1   
    48    19    20 1   
    49    20    22 1   
    50    21    22 2   
    51    23    47 1   
    52    23    48 1   
    53    46    49 1   
@<TRIPOS>SUBSTRUCTURE
     1 WJH         1 TEMP              0 ****  ****    0 ROOT
