@<TRIPOS>MOLECULE
WJK
   52    56     1     0     0
SMALL
No Charge or Current Charge


@<TRIPOS>ATOM
      1 C7         110.3400    27.5920    31.7860 ca         1 WJK       0.563900
      2 C9         111.6880    26.8380    33.6670 ca         1 WJK      -0.073000
      3 C20        108.7630    30.0690    28.0930 ca         1 WJK      -0.099500
      4 C21        109.1320    30.2480    24.2890 cp         1 WJK       0.024000
      5 C8         111.6170    27.4310    32.3980 ca         1 WJK       0.018100
      6 C18        109.0490    29.7130    25.6810 cp         1 WJK      -0.048000
      7 C16        109.1990    27.8320    27.2500 ca         1 WJK      -0.099500
      8 C19        108.8150    30.5720    26.7820 ca         1 WJK      -0.085500
      9 C26        108.0840    31.0130    23.6870 ca         1 WJK      -0.141500
     10 C1         114.1560    29.9150    28.8690 c3         1 WJK      -0.089100
     11 C3         112.6600    28.7790    30.6820 c6         1 WJK       0.158300
     12 C5         111.4760    28.4210    29.7300 c6         1 WJK       0.196800
     13 N6         110.2170    28.1280    30.4840 nh         1 WJK      -0.797300
     14 C10        110.4850    26.4510    34.2810 ca         1 WJK      -0.188000
     15 C11        109.2680    26.6630    33.6090 ca         1 WJK       0.353900
     16 N12        109.1880    27.2190    32.3800 nb         1 WJK      -0.720000
     17 O13        112.7810    27.8300    31.7670 os         1 WJK      -0.349100
     18 C14        108.9130    28.1500    29.7630 c3         1 WJK       0.280100
     19 C15        108.9530    28.6950    28.3350 ca         1 WJK      -0.095300
     20 C17        109.2510    28.3370    25.9400 ca         1 WJK      -0.085500
     21 C22        110.3240    30.0230    23.5590 ca         1 WJK      -0.107000
     22 C23        110.4980    30.5360    22.2670 ca         1 WJK      -0.088000
     23 C24        109.4740    31.2850    21.6770 ca         1 WJK      -0.111000
     24 C25        108.2790    31.5150    22.3760 ca         1 WJK      -0.093000
     25 C27        106.7660    31.2240    24.3100 cc         1 WJK       0.459000
     26 N28        105.9150    32.2580    24.0390 na         1 WJK      -0.226700
     27 N30        104.7670    32.1330    24.7510 nc         1 WJK      -0.204800
     28 N31        104.9250    31.0300    25.4290 nd         1 WJK      -0.043000
     29 N32        106.1410    30.4430    25.1700 nd         1 WJK      -0.364000
     30 H40        112.6460    26.6900    34.1610 ha         1 WJK       0.128000
     31 H48        108.5840    30.7500    28.9230 ha         1 WJK       0.117500
     32 H45        109.3570    26.7700    27.4230 ha         1 WJK       0.117500
     33 H47        108.6780    31.6380    26.6140 ha         1 WJK       0.111500
     34 H35        115.1730    29.9340    28.4610 hc         1 WJK       0.037367
     35 H34        113.4640    29.7130    28.0420 hc         1 WJK       0.037367
     36 H33        113.9310    30.9080    29.2750 hc         1 WJK       0.037367
     37 H36        114.2670    27.8590    29.5240 hc         1 WJK       0.057700
     38 H37        114.8220    29.0250    30.7120 hc         1 WJK       0.057700
     39 H4         112.4560    29.7650    31.1250 h1         1 WJK       0.057700
     40 H38        111.7540    27.5500    29.1180 h1         1 WJK       0.054700
     41 H39        111.3320    29.2700    29.0470 h1         1 WJK       0.054700
     42 H41        110.4880    25.9930    35.2660 ha         1 WJK       0.126000
     43 H42        108.3250    26.3700    34.0710 h4         1 WJK       0.022100
     44 H44        108.1930    28.7530    30.3330 h1         1 WJK       0.071700
     45 H43        108.5040    27.1310    29.7210 h1         1 WJK       0.071700
     46 H46        109.4440    27.6570    25.1130 ha         1 WJK       0.111500
     47 H49        111.1310    29.4530    24.0150 ha         1 WJK       0.124000
     48 H50        111.4250    30.3550    21.7260 ha         1 WJK       0.120000
     49 H51        109.6000    31.6800    20.6710 ha         1 WJK       0.121000
     50 H52        107.4920    32.0750    21.8750 ha         1 WJK       0.115000
     51 H1         106.0850    33.0350    23.4140 hn         1 WJK       0.384000
     52 C2         114.0390    28.8360    29.9670 c3         1 WJK      -0.077400
@<TRIPOS>BOND
     1     1     5 ar  
     2     1    13 1   
     3     1    16 ar  
     4     2     5 ar  
     5     2    14 ar  
     6     2    30 1   
     7     3     8 ar  
     8     3    19 ar  
     9     3    31 1   
    10     4     6 1   
    11     4     9 ar  
    12     4    21 ar  
    13     5    17 1   
    14     6     8 ar  
    15     6    20 ar  
    16     7    19 ar  
    17     7    20 ar  
    18     7    32 1   
    19     8    33 1   
    20     9    24 ar  
    21     9    25 1   
    22    10    34 1   
    23    10    35 1   
    24    10    36 1   
    25    10    52 1   
    26    11    12 1   
    27    11    17 1   
    28    11    39 1   
    29    11    52 1   
    30    12    13 1   
    31    12    40 1   
    32    12    41 1   
    33    13    18 1   
    34    14    15 ar  
    35    14    42 1   
    36    15    16 ar  
    37    15    43 1   
    38    18    19 1   
    39    18    44 1   
    40    18    45 1   
    41    20    46 1   
    42    21    22 ar  
    43    21    47 1   
    44    22    23 ar  
    45    22    48 1   
    46    23    24 ar  
    47    23    49 1   
    48    24    50 1   
    49    25    26 1   
    50    25    29 2   
    51    26    27 1   
    52    26    51 1   
    53    27    28 2   
    54    28    29 1   
    55    37    52 1   
    56    38    52 1   
@<TRIPOS>SUBSTRUCTURE
     1 WJK         1 TEMP              0 ****  ****    0 ROOT
