@<TRIPOS>MOLECULE
WJK
   52    56     1     0     0
SMALL
abcg2


@<TRIPOS>ATOM
      1 C7         110.3590    27.9500    30.9470 ca         1 WJK       0.563900
      2 C9         111.0480    25.8130    31.8220 ca         1 WJK      -0.073000
      3 C20        108.9580    31.0680    27.7490 ca         1 WJK      -0.099500
      4 C21        108.8510    29.7500    24.2070 cp         1 WJK       0.024000
      5 C8         111.3880    27.0720    31.3830 ca         1 WJK       0.018100
      6 C18        109.0670    29.8340    25.6700 cp         1 WJK      -0.048000
      7 C16        109.8580    28.8490    27.7370 ca         1 WJK      -0.099500
      8 C19        108.7350    30.9900    26.3830 ca         1 WJK      -0.085500
      9 C26        107.6260    30.0870    23.6020 ca         1 WJK      -0.141500
     10 C1         114.8920    30.5000    31.2860 c3         1 WJK      -0.089100
     11 C3         112.9490    28.8610    31.3540 c6         1 WJK       0.158300
     12 C5         112.0910    29.5170    30.2870 c6         1 WJK       0.196800
     13 N6         110.6900    29.2060    30.5080 nh         1 WJK      -0.797300
     14 C10        109.7040    25.4280    31.8340 ca         1 WJK      -0.188000
     15 C11        108.7640    26.3460    31.4040 ca         1 WJK       0.353900
     16 N12        109.0790    27.5730    30.9660 nb         1 WJK      -0.720000
     17 O13        112.7040    27.4380    31.3530 os         1 WJK      -0.349100
     18 C14        109.6980    30.1000    29.9500 c3         1 WJK       0.280100
     19 C15        109.5130    29.9950    28.4480 ca         1 WJK      -0.095300
     20 C17        109.6430    28.7710    26.3660 ca         1 WJK      -0.085500
     21 C22        109.9070    29.3600    23.3780 ca         1 WJK      -0.107000
     22 C23        109.7690    29.3260    21.9960 ca         1 WJK      -0.088000
     23 C24        108.5630    29.6890    21.4070 ca         1 WJK      -0.111000
     24 C25        107.4970    30.0650    22.2100 ca         1 WJK      -0.093000
     25 C27        106.4380    30.4120    24.3980 cc         1 WJK       0.459000
     26 N28        105.6420    31.4760    24.2000 na         1 WJK      -0.226700
     27 N30        104.6300    31.4450    25.0760 nc         1 WJK      -0.204800
     28 N31        104.8050    30.3830    25.7860 nd         1 WJK      -0.043000
     29 N32        105.9150    29.7150    25.3960 nd         1 WJK      -0.364000
     30 H40        111.8320    25.1420    32.1530 ha         1 WJK       0.128000
     31 H48        108.7040    31.9780    28.2810 ha         1 WJK       0.117500
     32 H45        110.2990    28.0060    28.2530 ha         1 WJK       0.117500
     33 H47        108.3140    31.8410    25.8620 ha         1 WJK       0.111500
     34 H35        115.9780    30.5680    31.2120 hc         1 WJK       0.037367
     35 H34        114.4660    31.1380    30.5100 hc         1 WJK       0.037367
     36 H33        114.5960    30.9070    32.2560 hc         1 WJK       0.037367
     37 H36        114.7030    28.6650    30.1510 hc         1 WJK       0.057700
     38 H37        114.9560    28.4250    31.8740 hc         1 WJK       0.057700
     39 H4         112.6560    29.2500    32.3360 h1         1 WJK       0.057700
     40 H38        112.4300    29.1890    29.2960 h1         1 WJK       0.054700
     41 H39        112.2090    30.5990    30.3380 h1         1 WJK       0.054700
     42 H41        109.4070    24.4450    32.1700 ha         1 WJK       0.126000
     43 H42        107.7090    26.0960    31.3970 h4         1 WJK       0.022100
     44 H44        109.9850    31.1230    30.2030 h1         1 WJK       0.071700
     45 H43        108.7470    29.8970    30.4420 h1         1 WJK       0.071700
     46 H46        109.9090    27.8660    25.8350 ha         1 WJK       0.111500
     47 H49        110.8570    29.1060    23.8290 ha         1 WJK       0.124000
     48 H50        110.6080    29.0260    21.3810 ha         1 WJK       0.120000
     49 H51        108.4490    29.6700    20.3310 ha         1 WJK       0.121000
     50 H52        106.5440    30.3180    21.7630 ha         1 WJK       0.115000
     51 H1         105.7330    32.2340    23.5360 hn         1 WJK       0.384000
     52 C2         114.4390    29.0490    31.1410 c3         1 WJK      -0.077400
@<TRIPOS>BOND
     1     1     5 ar  
     2     1    13 1   
     3     1    16 ar  
     4     2     5 ar  
     5     2    14 ar  
     6     2    30 1   
     7     3     8 ar  
     8     3    19 ar  
     9     3    31 1   
    10     4     6 1   
    11     4     9 ar  
    12     4    21 ar  
    13     5    17 1   
    14     6     8 ar  
    15     6    20 ar  
    16     7    19 ar  
    17     7    20 ar  
    18     7    32 1   
    19     8    33 1   
    20     9    24 ar  
    21     9    25 1   
    22    10    34 1   
    23    10    35 1   
    24    10    36 1   
    25    10    52 1   
    26    11    12 1   
    27    11    17 1   
    28    11    39 1   
    29    11    52 1   
    30    12    13 1   
    31    12    40 1   
    32    12    41 1   
    33    13    18 1   
    34    14    15 ar  
    35    14    42 1   
    36    15    16 ar  
    37    15    43 1   
    38    18    19 1   
    39    18    44 1   
    40    18    45 1   
    41    20    46 1   
    42    21    22 ar  
    43    21    47 1   
    44    22    23 ar  
    45    22    48 1   
    46    23    24 ar  
    47    23    49 1   
    48    24    50 1   
    49    25    26 1   
    50    25    29 2   
    51    26    27 1   
    52    26    51 1   
    53    27    28 2   
    54    28    29 1   
    55    37    52 1   
    56    38    52 1   
@<TRIPOS>SUBSTRUCTURE
     1 WJK         1 TEMP              0 ****  ****    0 ROOT
