@<TRIPOS>MOLECULE
WJL
   47    51     1     0     0
SMALL
abcg2


@<TRIPOS>ATOM
      1 C1           1.7790    -1.3850   -39.8540 c3         1 WJL      -0.104100
      2 C2           1.7000    -2.9050   -39.8370 c3         1 WJL       0.112300
      3 C3           0.6610    -3.4190   -38.8500 c3         1 WJL      -0.104100
      4 C6           0.3450    -3.7140   -42.9870 cc         1 WJL       0.377800
      5 C7           1.5750    -4.3970   -43.1550 ca         1 WJL      -0.237900
      6 C8           2.2450    -5.1430   -44.1320 ca         1 WJL      -0.037600
      7 C12          2.0180    -5.7580   -47.8340 ca         1 WJL      -0.076000
      8 C15          1.4770    -6.1210   -50.5180 ca         1 WJL      -0.055200
      9 C19         -0.2300    -7.5330   -50.2930 cc         1 WJL       0.354800
     10 C21          0.9860    -6.6050   -48.1790 ca         1 WJL      -0.038000
     11 C23          4.0750    -5.3390   -42.5420 ca         1 WJL       0.426300
     12 C24          5.4170    -5.8720   -42.2310 cx         1 WJL      -0.211000
     13 N4           1.4410    -3.4220   -41.1730 na         1 WJL      -0.028100
     14 N5           0.2960    -3.1480   -41.8070 nd         1 WJL      -0.509100
     15 O10          0.3580    -5.5650   -45.4830 o          1 WJL      -0.567100
     16 N11          2.3940    -5.5200   -46.4990 ns         1 WJL      -0.144000
     17 C13          2.7800    -5.1020   -48.8320 ca         1 WJL      -0.107000
     18 C14          2.5340    -5.2730   -50.1710 ca         1 WJL      -0.108000
     19 N16          0.9690    -6.5050   -51.7120 na         1 WJL      -0.060400
     20 N18         -0.0540    -7.3500   -51.5780 nd         1 WJL      -0.513100
     21 C20          0.7120    -6.7790   -49.5420 ca         1 WJL      -0.213900
     22 C22          3.4990    -5.6160   -43.8060 ca         1 WJL      -0.181000
     23 C25          5.7580    -6.2640   -40.8160 cx         1 WJL      -0.104400
     24 C26          6.3750    -5.0490   -41.4070 cx         1 WJL      -0.104400
     25 N27          3.4630    -4.6190   -41.6210 nb         1 WJL      -0.683000
     26 C28          2.2560    -4.1740   -41.9450 ca         1 WJL       0.376500
     27 H1           2.0520    -1.0190   -38.8640 hc         1 WJL       0.048367
     28 H2           2.5300    -1.0360   -40.5620 hc         1 WJL       0.048367
     29 H3           0.8190    -0.9440   -40.1220 hc         1 WJL       0.048367
     30 H4           2.6760    -3.3090   -39.5650 h1         1 WJL       0.076700
     31 H5           0.9130    -3.0840   -37.8440 hc         1 WJL       0.048367
     32 H6          -0.3320    -3.0410   -39.0910 hc         1 WJL       0.048367
     33 H7           0.6260    -4.5080   -38.8430 hc         1 WJL       0.048367
     34 H8          -0.4840    -3.6260   -43.6710 h4         1 WJL       0.067800
     35 H9          -1.0080    -8.1870   -49.9310 h4         1 WJL       0.053800
     36 H10          0.4090    -7.1350   -47.4360 ha         1 WJL       0.144000
     37 H11          5.8560    -6.4750   -43.0170 hc         1 WJL       0.084700
     38 H12          3.3540    -5.2430   -46.3580 hn         1 WJL       0.156000
     39 H13          3.5840    -4.4440   -48.5250 ha         1 WJL       0.112000
     40 H14          3.1310    -4.7660   -50.9170 ha         1 WJL       0.122000
     41 H15          1.2700    -6.2260   -52.6310 hn         1 WJL       0.376000
     42 H16          4.0600    -6.2330   -44.4970 ha         1 WJL       0.125000
     43 H17          4.9820    -6.1300   -40.0730 hc         1 WJL       0.078950
     44 H18          6.3710    -7.1460   -40.6840 hc         1 WJL       0.078950
     45 H19          7.4190    -5.0810   -41.6890 hc         1 WJL       0.078950
     46 H20          6.0240    -4.0830   -41.0680 hc         1 WJL       0.078950
     47 C9           1.5670    -5.4340   -45.4330 c          1 WJL       0.615700
@<TRIPOS>BOND
     1     1     2 1   
     2     1    27 1   
     3     1    28 1   
     4     1    29 1   
     5     2     3 1   
     6     2    13 1   
     7     2    30 1   
     8     3    31 1   
     9     3    32 1   
    10     3    33 1   
    11     4     5 1   
    12     4    14 2   
    13     4    34 1   
    14     5     6 ar  
    15     5    26 ar  
    16     6    22 ar  
    17     6    47 1   
    18     7    10 ar  
    19     7    16 1   
    20     7    17 ar  
    21     8    18 ar  
    22     8    19 1   
    23     8    21 ar  
    24     9    20 2   
    25     9    21 1   
    26     9    35 1   
    27    10    21 ar  
    28    10    36 1   
    29    11    12 1   
    30    11    22 ar  
    31    11    25 ar  
    32    12    23 1   
    33    12    24 1   
    34    12    37 1   
    35    13    14 1   
    36    13    26 1   
    37    15    47 2   
    38    16    38 1   
    39    16    47 1   
    40    17    18 ar  
    41    17    39 1   
    42    18    40 1   
    43    19    20 1   
    44    19    41 1   
    45    22    42 1   
    46    23    24 1   
    47    23    43 1   
    48    23    44 1   
    49    24    45 1   
    50    24    46 1   
    51    25    26 ar  
@<TRIPOS>SUBSTRUCTURE
     1 WJL         1 TEMP              0 ****  ****    0 ROOT
