@<TRIPOS>MOLECULE
WJL
   47    51     1     0     0
SMALL
No Charge or Current Charge


@<TRIPOS>ATOM
      1 C1           1.1820    -1.3480   -39.4200 c3         1 WJL      -0.104100
      2 C2           1.4770    -2.8540   -39.5960 c3         1 WJL       0.112300
      3 C3           0.7260    -3.7120   -38.5540 c3         1 WJL      -0.104100
      4 C6           0.1730    -3.7650   -42.7780 cc         1 WJL       0.377800
      5 C7           1.5600    -4.1260   -42.9790 ca         1 WJL      -0.237900
      6 C8           2.2300    -4.6780   -44.0940 ca         1 WJL      -0.037600
      7 C12          2.0580    -5.9910   -47.7260 ca         1 WJL      -0.076000
      8 C15          1.6920    -6.8870   -50.3430 ca         1 WJL      -0.055200
      9 C19         -0.4950    -6.4820   -50.5230 cc         1 WJL       0.354800
     10 C21          0.7690    -5.9350   -48.3220 ca         1 WJL      -0.038000
     11 C23          4.2110    -4.5580   -42.6550 ca         1 WJL       0.426300
     12 C24          5.6790    -4.7710   -42.4250 cx         1 WJL      -0.211000
     13 N4           1.2150    -3.3110   -40.9800 na         1 WJL      -0.028100
     14 N5          -0.0530    -3.2650   -41.5580 nd         1 WJL      -0.509100
     15 O10          0.3180    -4.8160   -45.5480 o          1 WJL      -0.567100
     16 N11          2.3270    -5.5540   -46.3960 ns         1 WJL      -0.144000
     17 C13          3.1500    -6.5060   -48.4740 ca         1 WJL      -0.107000
     18 C14          2.9770    -6.9620   -49.7990 ca         1 WJL      -0.108000
     19 N16          1.2170    -7.2480   -51.5860 na         1 WJL      -0.060400
     20 N18         -0.1580    -7.0000   -51.7170 nd         1 WJL      -0.513100
     21 C20          0.6400    -6.3980   -49.6390 ca         1 WJL      -0.213900
     22 C22          3.6180    -4.8900   -43.8930 ca         1 WJL      -0.181000
     23 C25          6.3480    -6.1020   -42.7020 cx         1 WJL      -0.104400
     24 C26          6.2020    -5.6140   -41.2800 cx         1 WJL      -0.104400
     25 N27          3.5220    -4.0260   -41.6210 nb         1 WJL      -0.683000
     26 C28          2.2030    -3.8240   -41.8100 ca         1 WJL       0.376500
     27 H1           1.4570    -1.0150   -38.4120 hc         1 WJL       0.048367
     28 H2           1.7580    -0.7570   -40.1420 hc         1 WJL       0.048367
     29 H3           0.1170    -1.1360   -39.5730 hc         1 WJL       0.048367
     30 H4           2.5500    -2.9900   -39.4020 h1         1 WJL       0.076700
     31 H5           0.9940    -3.4060   -37.5360 hc         1 WJL       0.048367
     32 H6          -0.3600    -3.6080   -38.6700 hc         1 WJL       0.048367
     33 H7           0.9840    -4.7710   -38.6710 hc         1 WJL       0.048367
     34 H8          -0.6820    -3.8340   -43.4370 h4         1 WJL       0.067800
     35 H9          -1.5300    -6.2030   -50.3740 h4         1 WJL       0.053800
     36 H10         -0.1040    -5.5530   -47.8020 ha         1 WJL       0.144000
     37 H11          6.2520    -3.8810   -42.6720 hc         1 WJL       0.084700
     38 H12          3.2960    -5.6590   -46.1270 hn         1 WJL       0.156000
     39 H13          4.1410    -6.5520   -48.0250 ha         1 WJL       0.112000
     40 H14          3.8130    -7.3560   -50.3730 ha         1 WJL       0.122000
     41 H15          1.7640    -7.6490   -52.3470 hn         1 WJL       0.376000
     42 H16          4.2510    -5.3050   -44.6710 ha         1 WJL       0.125000
     43 H17          5.7240    -6.9370   -43.0130 hc         1 WJL       0.078950
     44 H18          7.3420    -6.0890   -43.1430 hc         1 WJL       0.078950
     45 H19          7.0970    -5.2720   -40.7660 hc         1 WJL       0.078950
     46 H20          5.4780    -6.1190   -40.6450 hc         1 WJL       0.078950
     47 C9           1.5190    -5.0140   -45.4010 c          1 WJL       0.615700
@<TRIPOS>BOND
     1     1     2 1   
     2     1    27 1   
     3     1    28 1   
     4     1    29 1   
     5     2     3 1   
     6     2    13 1   
     7     2    30 1   
     8     3    31 1   
     9     3    32 1   
    10     3    33 1   
    11     4     5 1   
    12     4    14 2   
    13     4    34 1   
    14     5     6 ar  
    15     5    26 ar  
    16     6    22 ar  
    17     6    47 1   
    18     7    10 ar  
    19     7    16 1   
    20     7    17 ar  
    21     8    18 ar  
    22     8    19 1   
    23     8    21 ar  
    24     9    20 2   
    25     9    21 1   
    26     9    35 1   
    27    10    21 ar  
    28    10    36 1   
    29    11    12 1   
    30    11    22 ar  
    31    11    25 ar  
    32    12    23 1   
    33    12    24 1   
    34    12    37 1   
    35    13    14 1   
    36    13    26 1   
    37    15    47 2   
    38    16    38 1   
    39    16    47 1   
    40    17    18 ar  
    41    17    39 1   
    42    18    40 1   
    43    19    20 1   
    44    19    41 1   
    45    22    42 1   
    46    23    24 1   
    47    23    43 1   
    48    23    44 1   
    49    24    45 1   
    50    24    46 1   
    51    25    26 ar  
@<TRIPOS>SUBSTRUCTURE
     1 WJL         1 TEMP              0 ****  ****    0 ROOT
