@<TRIPOS>MOLECULE
WJM
   32    33     1     0     0
SMALL
No Charge or Current Charge


@<TRIPOS>ATOM
      1 N1         -13.4300   -13.3110   -15.7990 n3         1 WJM      -0.702600
      2 C4         -11.9960   -11.7490   -14.4230 c6         1 WJM       0.100500
      3 C5         -12.6170   -13.1650   -14.5680 c6         1 WJM       0.151300
      4 C7         -10.1970    -9.2550   -14.3860 cc         1 WJM       0.072500
      5 C8         -10.7400    -9.2940   -13.1160 cd         1 WJM      -0.145000
      6 C10         -9.1590    -7.7120   -13.1550 cc         1 WJM       0.142900
      7 N          -15.4620   -16.2930   -14.6090 nt         1 WJM      -0.619000
      8 C          -15.2160   -14.9750   -14.8040 c          1 WJM       0.598100
      9 O          -15.8310   -14.1450   -14.1510 o          1 WJM      -0.576100
     10 C1         -14.1370   -14.6320   -15.8820 c3         1 WJM       0.092800
     11 C2         -12.5550   -13.0650   -16.9690 c6         1 WJM       0.151300
     12 C3         -11.9300   -11.6450   -16.9570 c6         1 WJM       0.100500
     13 C9         -10.0720    -8.3210   -12.3450 cd         1 WJM      -0.203000
     14 N2         -11.3690   -11.1640   -15.6480 n          1 WJM      -0.391800
     15 O1         -10.0050    -9.6730   -16.7130 o          1 WJM      -0.583100
     16 O2          -9.2320    -8.2610   -14.4140 os         1 WJM      -0.194000
     17 H9         -11.2410   -11.8170   -13.6290 h1         1 WJM       0.059450
     18 H8         -12.7950   -11.0700   -14.0930 h1         1 WJM       0.059450
     19 H11        -11.8010   -13.9040   -14.5690 h1         1 WJM       0.041950
     20 H10        -13.2230   -13.3670   -13.6730 h1         1 WJM       0.041950
     21 H12        -11.5480    -9.9050   -12.7390 ha         1 WJM       0.140000
     22 H14         -8.4450    -6.9170   -12.9850 h4         1 WJM       0.056100
     23 H1         -16.1500   -16.5710   -13.9250 hn         1 WJM       0.313000
     24 H          -14.9620   -16.9880   -15.1450 hn         1 WJM       0.313000
     25 H3         -13.3950   -15.4420   -15.8580 h1         1 WJM       0.044700
     26 H2         -14.6500   -14.7140   -16.8500 h1         1 WJM       0.044700
     27 H5         -11.7410   -13.8050   -16.9900 h1         1 WJM       0.041950
     28 H4         -13.1190   -13.1880   -17.9050 h1         1 WJM       0.041950
     29 H7         -11.1490   -11.6200   -17.7300 h1         1 WJM       0.059450
     30 H6         -12.7050   -10.9310   -17.2690 h1         1 WJM       0.059450
     31 H13        -10.2540    -8.0820   -11.3020 ha         1 WJM       0.144000
     32 C6         -10.5090   -10.0240   -15.6500 c          1 WJM       0.546600
@<TRIPOS>BOND
     1     1     3 1   
     2     1    10 1   
     3     1    11 1   
     4     2     3 1   
     5     2    14 1   
     6     2    17 1   
     7     2    18 1   
     8     3    19 1   
     9     3    20 1   
    10     4     5 2   
    11     4    16 1   
    12     4    32 1   
    13     5    13 1   
    14     5    21 1   
    15     6    13 2   
    16     6    16 1   
    17     6    22 1   
    18     7     8 1   
    19     7    23 1   
    20     7    24 1   
    21     8     9 2   
    22     8    10 1   
    23    10    25 1   
    24    10    26 1   
    25    11    12 1   
    26    11    27 1   
    27    11    28 1   
    28    12    14 1   
    29    12    29 1   
    30    12    30 1   
    31    13    31 1   
    32    14    32 1   
    33    15    32 2   
@<TRIPOS>SUBSTRUCTURE
     1 WJM         1 TEMP              0 ****  ****    0 ROOT
