@<TRIPOS>MOLECULE
WJM
   32    33     1     0     0
SMALL
abcg2


@<TRIPOS>ATOM
      1 N1         -13.0720   -13.2080   -15.7330 n3         1 WJM      -0.702600
      2 C4         -11.3100   -12.3250   -14.3320 c6         1 WJM       0.100500
      3 C5         -12.1310   -13.5630   -14.6940 c6         1 WJM       0.151300
      4 C7         -10.8550    -9.4500   -14.3890 cc         1 WJM       0.072500
      5 C8         -10.2750    -9.6700   -13.1770 cd         1 WJM      -0.145000
      6 C10        -10.9620    -7.5680   -13.3050 cc         1 WJM       0.142900
      7 N          -15.8460   -15.1970   -14.5390 nt         1 WJM      -0.619000
      8 C          -15.1420   -14.0700   -14.7150 c          1 WJM       0.598100
      9 O          -15.2910   -13.0710   -14.0300 o          1 WJM      -0.576100
     10 C1         -14.1660   -14.1260   -15.8820 c3         1 WJM       0.092800
     11 C2         -12.3920   -12.9680   -16.9980 c6         1 WJM       0.151300
     12 C3         -11.0050   -12.3790   -16.7420 c6         1 WJM       0.100500
     13 C9         -10.3440    -8.4390   -12.4690 cd         1 WJM      -0.203000
     14 N2         -11.0080   -11.5680   -15.5410 n          1 WJM      -0.391800
     15 O1         -11.0580    -9.6250   -16.7050 o          1 WJM      -0.583100
     16 O2         -11.2650    -8.1650   -14.4660 os         1 WJM      -0.194000
     17 H9         -10.3970   -12.6280   -13.8100 h1         1 WJM       0.059450
     18 H8         -11.8960   -11.7040   -13.6570 h1         1 WJM       0.059450
     19 H11        -11.4800   -14.4030   -14.9820 h1         1 WJM       0.041950
     20 H10        -12.6590   -13.8820   -13.7960 h1         1 WJM       0.041950
     21 H12         -9.8290   -10.5860   -12.8270 ha         1 WJM       0.140000
     22 H14        -11.2440    -6.5330   -13.2030 h4         1 WJM       0.056100
     23 H1         -16.5710   -15.2460   -13.8420 hn         1 WJM       0.313000
     24 H          -15.6810   -16.0190   -15.0950 hn         1 WJM       0.313000
     25 H3         -13.8360   -15.1650   -16.0520 h1         1 WJM       0.044700
     26 H2         -14.7360   -13.8450   -16.7750 h1         1 WJM       0.044700
     27 H5         -12.2620   -13.8890   -17.5870 h1         1 WJM       0.041950
     28 H4         -12.9960   -12.2840   -17.6000 h1         1 WJM       0.041950
     29 H7         -10.2750   -13.1800   -16.6000 h1         1 WJM       0.059450
     30 H6         -10.6720   -11.7940   -17.5940 h1         1 WJM       0.059450
     31 H13         -9.9820    -8.2330   -11.4760 ha         1 WJM       0.144000
     32 C6         -11.0000   -10.2240   -15.6380 c          1 WJM       0.546600
@<TRIPOS>BOND
     1     1     3 1   
     2     1    10 1   
     3     1    11 1   
     4     2     3 1   
     5     2    14 1   
     6     2    17 1   
     7     2    18 1   
     8     3    19 1   
     9     3    20 1   
    10     4     5 2   
    11     4    16 1   
    12     4    32 1   
    13     5    13 1   
    14     5    21 1   
    15     6    13 2   
    16     6    16 1   
    17     6    22 1   
    18     7     8 1   
    19     7    23 1   
    20     7    24 1   
    21     8     9 2   
    22     8    10 1   
    23    10    25 1   
    24    10    26 1   
    25    11    12 1   
    26    11    27 1   
    27    11    28 1   
    28    12    14 1   
    29    12    29 1   
    30    12    30 1   
    31    13    31 1   
    32    14    32 1   
    33    15    32 2   
@<TRIPOS>SUBSTRUCTURE
     1 WJM         1 TEMP              0 ****  ****    0 ROOT
