@<TRIPOS>MOLECULE
WJO
   65    68     1     0     0
SMALL
abcg2


@<TRIPOS>ATOM
      1 N1         -35.7620   -30.0910   -69.0810 n3         1 WJO      -0.715600
      2 N3         -43.2220   -26.1390   -63.2390 nh         1 WJO      -0.841400
      3 C4         -36.7050   -29.1220   -68.4940 c3         1 WJO       0.223100
      4 C5         -37.1800   -29.4460   -67.0900 ca         1 WJO      -0.125300
      5 C6         -36.4440   -29.0890   -65.9590 ca         1 WJO      -0.098000
      6 C7         -36.8700   -29.4500   -64.6860 ca         1 WJO      -0.102000
      7 C8         -38.0410   -30.1810   -64.5010 ca         1 WJO      -0.112300
      8 C10        -40.6890   -29.5360   -63.0020 ca         1 WJO       0.242000
      9 C13        -42.3970   -27.2530   -63.1540 ca         1 WJO       0.297000
     10 C15        -45.2540   -24.9510   -63.8320 c6         1 WJO       0.142100
     11 C17        -42.8130   -24.8600   -62.6690 c6         1 WJO       0.195800
     12 C20        -38.7900   -30.5220   -65.6250 ca         1 WJO      -0.102000
     13 C21        -38.3650   -30.1590   -66.8970 ca         1 WJO      -0.098000
     14 C22        -36.3410   -31.4280   -69.1370 c6         1 WJO       0.131800
     15 C24        -34.1110   -32.4370   -69.4940 c6         1 WJO       0.175300
     16 C1         -33.5310   -31.0360   -69.3710 c6         1 WJO       0.130300
     17 C11        -40.1740   -28.2370   -62.9380 ca         1 WJO      -0.123000
     18 C12        -41.0050   -27.1260   -63.0130 ca         1 WJO      -0.146500
     19 C14        -44.6470   -26.2950   -63.4770 c6         1 WJO       0.195800
     20 C16        -43.9780   -24.2100   -61.9410 c6         1 WJO       0.142100
     21 C18        -42.9080   -28.5620   -63.2350 ca         1 WJO      -0.146500
     22 C19        -42.0720   -29.6670   -63.1680 ca         1 WJO      -0.123000
     23 C2         -34.4090   -30.1040   -68.5150 c6         1 WJO       0.171500
     24 C23        -35.5250   -32.3670   -70.0180 c6         1 WJO       0.172300
     25 C3         -33.7700   -28.7230   -68.4450 c3         1 WJO       0.156600
     26 C9         -38.4620   -30.6140   -63.1060 c3         1 WJO       0.244100
     27 N2         -39.8900   -30.6760   -62.8560 nu         1 WJO      -0.930200
     28 O1         -32.2280   -31.2000   -68.8000 oh         1 WJO      -0.737000
     29 O2         -33.7070   -28.1450   -69.7510 oh         1 WJO      -0.655000
     30 O3         -45.1040   -23.9780   -62.7920 os         1 WJO      -0.465000
     31 O4         -36.0810   -33.6830   -69.9920 oh         1 WJO      -0.707000
     32 O5         -33.3080   -33.2310   -70.3650 oh         1 WJO      -0.648000
     33 H2         -36.2490   -28.1350   -68.5230 h1         1 WJO       0.063700
     34 H3         -37.5720   -29.0930   -69.1580 h1         1 WJO       0.063700
     35 H4         -35.5350   -28.5120   -66.0660 ha         1 WJO       0.109500
     36 H5         -36.2870   -29.1520   -63.8210 ha         1 WJO       0.112000
     37 H6         -46.3240   -25.0650   -64.0120 h1         1 WJO       0.051950
     38 H7         -44.7880   -24.5740   -64.7500 h1         1 WJO       0.051950
     39 H8         -42.4250   -24.1800   -63.4370 h1         1 WJO       0.048950
     40 H9         -42.0160   -25.0160   -61.9410 h1         1 WJO       0.048950
     41 H10        -39.7170   -31.0710   -65.5080 ha         1 WJO       0.112000
     42 H11        -38.9640   -30.4340   -67.7570 ha         1 WJO       0.109500
     43 H12        -37.3500   -31.3510   -69.5450 h1         1 WJO       0.043700
     44 H13        -36.4280   -31.8900   -68.1410 h1         1 WJO       0.043700
     45 H14        -34.1340   -32.8930   -68.4940 h1         1 WJO       0.054700
     46 H15        -33.4430   -30.6090   -70.3720 h1         1 WJO       0.072700
     47 H16        -39.1090   -28.0770   -62.8380 ha         1 WJO       0.110000
     48 H17        -40.5510   -26.1450   -62.9840 ha         1 WJO       0.110000
     49 H18        -44.8070   -26.9700   -64.3210 h1         1 WJO       0.048950
     50 H19        -45.1710   -26.7280   -62.6120 h1         1 WJO       0.048950
     51 H20        -43.6750   -23.2400   -61.5470 h1         1 WJO       0.051950
     52 H21        -44.2790   -24.8450   -61.0990 h1         1 WJO       0.051950
     53 H22        -43.9700   -28.7280   -63.3440 ha         1 WJO       0.110000
     54 H23        -42.5050   -30.6600   -63.2310 ha         1 WJO       0.110000
     55 H24        -34.4040   -30.5000   -67.4860 h1         1 WJO       0.046700
     56 H25        -35.5040   -31.9880   -71.0460 h1         1 WJO       0.058700
     57 H26        -32.7680   -28.8410   -68.0250 h1         1 WJO       0.025700
     58 H27        -34.3250   -28.0700   -67.7700 h1         1 WJO       0.025700
     59 H28        -38.0650   -31.6130   -62.9100 h1         1 WJO       0.059700
     60 H29        -37.9910   -29.9520   -62.3750 h1         1 WJO       0.059700
     61 H30        -40.3260   -31.5150   -63.2070 hn         1 WJO       0.451000
     62 H31        -31.6390   -30.5270   -69.1600 ho         1 WJO       0.510000
     63 H32        -33.2320   -27.3080   -69.6830 ho         1 WJO       0.438000
     64 H33        -36.9490   -33.6520   -70.4150 ho         1 WJO       0.500000
     65 H34        -32.3930   -33.1060   -70.0790 ho         1 WJO       0.452000
@<TRIPOS>BOND
     1     1     3 1   
     2     1    14 1   
     3     1    23 1   
     4     2     9 1   
     5     2    11 1   
     6     2    19 1   
     7     3     4 1   
     8     3    33 1   
     9     3    34 1   
    10     4     5 ar  
    11     4    13 ar  
    12     5     6 ar  
    13     5    35 1   
    14     6     7 ar  
    15     6    36 1   
    16     7    12 ar  
    17     7    26 1   
    18     8    17 ar  
    19     8    22 ar  
    20     8    27 1   
    21     9    18 ar  
    22     9    21 ar  
    23    10    19 1   
    24    10    30 1   
    25    10    37 1   
    26    10    38 1   
    27    11    20 1   
    28    11    39 1   
    29    11    40 1   
    30    12    13 ar  
    31    12    41 1   
    32    13    42 1   
    33    14    24 1   
    34    14    43 1   
    35    14    44 1   
    36    15    16 1   
    37    15    24 1   
    38    15    32 1   
    39    15    45 1   
    40    16    23 1   
    41    16    28 1   
    42    16    46 1   
    43    17    18 ar  
    44    17    47 1   
    45    18    48 1   
    46    19    49 1   
    47    19    50 1   
    48    20    30 1   
    49    20    51 1   
    50    20    52 1   
    51    21    22 ar  
    52    21    53 1   
    53    22    54 1   
    54    23    25 1   
    55    23    55 1   
    56    24    31 1   
    57    24    56 1   
    58    25    29 1   
    59    25    57 1   
    60    25    58 1   
    61    26    27 1   
    62    26    59 1   
    63    26    60 1   
    64    27    61 1   
    65    28    62 1   
    66    29    63 1   
    67    31    64 1   
    68    32    65 1   
@<TRIPOS>SUBSTRUCTURE
     1 WJO         1 TEMP              0 ****  ****    0 ROOT
