@<TRIPOS>MOLECULE
WJO
   65    68     1     0     0
SMALL
No Charge or Current Charge


@<TRIPOS>ATOM
      1 N1         -36.2140   -30.4110   -69.2140 n3         1 WJO      -0.715600
      2 N3         -42.7010   -25.9770   -63.0150 nh         1 WJO      -0.841400
      3 C4         -37.5230   -29.9040   -68.7020 c3         1 WJO       0.223100
      4 C5         -37.8270   -30.2630   -67.2430 ca         1 WJO      -0.125300
      5 C6         -37.4300   -29.4170   -66.1870 ca         1 WJO      -0.098000
      6 C7         -37.7220   -29.7540   -64.8550 ca         1 WJO      -0.102000
      7 C8         -38.4240   -30.9370   -64.5550 ca         1 WJO      -0.112300
      8 C10        -40.7690   -29.7710   -62.8450 ca         1 WJO       0.242000
      9 C13        -42.0570   -27.2400   -62.9570 ca         1 WJO       0.297000
     10 C15        -43.9220   -24.1830   -64.3160 c6         1 WJO       0.142100
     11 C17        -42.2780   -24.8150   -62.1600 c6         1 WJO       0.195800
     12 C20        -38.8320   -31.7780   -65.6080 ca         1 WJO      -0.102000
     13 C21        -38.5390   -31.4410   -66.9410 ca         1 WJO      -0.098000
     14 C22        -36.1500   -31.9050   -69.1660 c6         1 WJO       0.131800
     15 C24        -33.6210   -31.8810   -69.1580 c6         1 WJO       0.175300
     16 C1         -33.6680   -30.3300   -69.2550 c6         1 WJO       0.130300
     17 C11        -40.0800   -28.6040   -62.4700 ca         1 WJO      -0.123000
     18 C12        -40.7180   -27.3500   -62.5270 ca         1 WJO      -0.146500
     19 C14        -43.8460   -25.6970   -63.9470 c6         1 WJO       0.195800
     20 C16        -43.4620   -23.8270   -61.9190 c6         1 WJO       0.142100
     21 C18        -42.7430   -28.4170   -63.3240 ca         1 WJO      -0.146500
     22 C19        -42.1050   -29.6710   -63.2660 ca         1 WJO      -0.123000
     23 C2         -34.9860   -29.7590   -68.6110 c6         1 WJO       0.171500
     24 C23        -34.8790   -32.4950   -69.8400 c6         1 WJO       0.172300
     25 C3         -34.9790   -28.1830   -68.7080 c3         1 WJO       0.156600
     26 C9         -38.7430   -31.3050   -63.1090 c3         1 WJO       0.244100
     27 N2         -40.1570   -31.0270   -62.7980 nu         1 WJO      -0.930200
     28 O1         -32.4690   -29.7810   -68.6500 oh         1 WJO      -0.737000
     29 O2         -34.9010   -27.6850   -70.0580 oh         1 WJO      -0.655000
     30 O3         -44.0440   -23.3130   -63.1520 os         1 WJO      -0.465000
     31 O4         -34.8870   -33.9390   -69.7410 oh         1 WJO      -0.707000
     32 O5         -32.3930   -32.3430   -69.7570 oh         1 WJO      -0.648000
     33 H2         -37.6000   -28.8160   -68.8270 h1         1 WJO       0.063700
     34 H3         -38.3300   -30.3170   -69.3230 h1         1 WJO       0.063700
     35 H4         -36.8970   -28.4940   -66.3920 ha         1 WJO       0.109500
     36 H5         -37.4050   -29.0900   -64.0540 ha         1 WJO       0.112000
     37 H6         -44.7730   -24.0010   -64.9870 h1         1 WJO       0.051950
     38 H7         -43.0080   -23.9060   -64.8610 h1         1 WJO       0.051950
     39 H8         -41.4450   -24.2740   -62.6340 h1         1 WJO       0.048950
     40 H9         -41.9250   -25.1710   -61.1810 h1         1 WJO       0.048950
     41 H10        -39.3800   -32.6920   -65.3940 ha         1 WJO       0.112000
     42 H11        -38.8670   -32.1010   -67.7410 ha         1 WJO       0.109500
     43 H12        -37.0340   -32.3300   -69.6640 h1         1 WJO       0.043700
     44 H13        -36.1740   -32.2500   -68.1220 h1         1 WJO       0.043700
     45 H14        -33.6400   -32.1550   -68.0920 h1         1 WJO       0.054700
     46 H15        -33.6910   -30.0740   -70.3260 h1         1 WJO       0.072700
     47 H16        -39.0500   -28.6610   -62.1300 ha         1 WJO       0.110000
     48 H17        -40.1580   -26.4640   -62.2440 ha         1 WJO       0.110000
     49 H18        -43.7260   -26.2700   -64.8790 h1         1 WJO       0.048950
     50 H19        -44.7970   -26.0070   -63.4890 h1         1 WJO       0.048950
     51 H20        -43.1250   -22.9800   -61.3040 h1         1 WJO       0.051950
     52 H21        -44.2480   -24.3500   -61.3560 h1         1 WJO       0.051950
     53 H22        -43.7790   -28.3700   -63.6450 ha         1 WJO       0.110000
     54 H23        -42.6530   -30.5640   -63.5520 ha         1 WJO       0.110000
     55 H24        -34.9550   -30.0030   -67.5380 h1         1 WJO       0.046700
     56 H25        -34.8790   -32.1900   -70.8980 h1         1 WJO       0.058700
     57 H26        -34.1280   -27.8050   -68.1270 h1         1 WJO       0.025700
     58 H27        -35.8730   -27.7810   -68.2180 h1         1 WJO       0.025700
     59 H28        -38.5310   -32.3730   -62.9590 h1         1 WJO       0.059700
     60 H29        -38.0820   -30.7500   -62.4290 h1         1 WJO       0.059700
     61 H30        -40.7930   -31.8070   -62.9680 hn         1 WJO       0.451000
     62 H31        -32.3800   -28.8570   -68.9830 ho         1 WJO       0.510000
     63 H32        -35.0420   -26.7140   -70.0150 ho         1 WJO       0.438000
     64 H33        -35.5060   -34.2700   -70.4330 ho         1 WJO       0.500000
     65 H34        -31.7310   -31.6690   -69.4810 ho         1 WJO       0.452000
@<TRIPOS>BOND
     1     1     3 1   
     2     1    14 1   
     3     1    23 1   
     4     2     9 1   
     5     2    11 1   
     6     2    19 1   
     7     3     4 1   
     8     3    33 1   
     9     3    34 1   
    10     4     5 ar  
    11     4    13 ar  
    12     5     6 ar  
    13     5    35 1   
    14     6     7 ar  
    15     6    36 1   
    16     7    12 ar  
    17     7    26 1   
    18     8    17 ar  
    19     8    22 ar  
    20     8    27 1   
    21     9    18 ar  
    22     9    21 ar  
    23    10    19 1   
    24    10    30 1   
    25    10    37 1   
    26    10    38 1   
    27    11    20 1   
    28    11    39 1   
    29    11    40 1   
    30    12    13 ar  
    31    12    41 1   
    32    13    42 1   
    33    14    24 1   
    34    14    43 1   
    35    14    44 1   
    36    15    16 1   
    37    15    24 1   
    38    15    32 1   
    39    15    45 1   
    40    16    23 1   
    41    16    28 1   
    42    16    46 1   
    43    17    18 ar  
    44    17    47 1   
    45    18    48 1   
    46    19    49 1   
    47    19    50 1   
    48    20    30 1   
    49    20    51 1   
    50    20    52 1   
    51    21    22 ar  
    52    21    53 1   
    53    22    54 1   
    54    23    25 1   
    55    23    55 1   
    56    24    31 1   
    57    24    56 1   
    58    25    29 1   
    59    25    57 1   
    60    25    58 1   
    61    26    27 1   
    62    26    59 1   
    63    26    60 1   
    64    27    61 1   
    65    28    62 1   
    66    29    63 1   
    67    31    64 1   
    68    32    65 1   
@<TRIPOS>SUBSTRUCTURE
     1 WJO         1 TEMP              0 ****  ****    0 ROOT
