@<TRIPOS>MOLECULE
WJQ
   29    31     1     0     0
SMALL
abcg2


@<TRIPOS>ATOM
      1 C01          6.6560     7.4290    17.7910 c5         1 WJQ      -0.110000
      2 C02          7.0120     7.9320    16.3980 c          1 WJQ       0.581000
      3 C05          5.3180     8.0280    18.2580 c6         1 WJQ       0.179100
      4 O08          7.3170     7.4450    20.1160 os         1 WJQ      -0.450500
      5 C11          6.0810     8.0410    20.4720 c6         1 WJQ       0.418600
      6 C13          5.7460     7.6400    21.8840 ca         1 WJQ      -0.085300
      7 C15          6.7020     7.8160    22.8830 ca         1 WJQ      -0.071000
      8 C16          4.2230     6.7950    23.5260 ca         1 WJQ      -0.016900
      9 C17          6.4100     7.4760    24.1970 ca         1 WJQ      -0.115000
     10 C18          5.1610     6.9600    24.5330 ca         1 WJQ      -0.072000
     11 C03          7.7300     7.8360    18.8140 c6         1 WJQ       0.179100
     12 S04          6.5360     5.5990    17.6700 ss         1 WJQ      -0.205600
     13 N06          7.1150     6.9050    15.5000 ns         1 WJQ      -0.480500
     14 O07          7.1770     9.1020    16.1300 o          1 WJQ      -0.490000
     15 C09          6.9100     5.6080    15.9360 c          1 WJQ       0.582600
     16 O10          5.0600     7.6250    19.5950 os         1 WJQ      -0.450500
     17 C14          4.4920     7.1290    22.2060 ca         1 WJQ      -0.047000
     18 BR19         2.4980     6.0830    23.9660 br         1 WJQ      -0.106100
     19 H23          5.3830     9.1190    18.1920 h1         1 WJQ       0.074700
     20 H22          4.4910     7.6710    17.6490 h1         1 WJQ       0.074700
     21 H25          6.1890     9.1330    20.3900 h2         1 WJQ       0.041700
     22 H27          7.6750     8.2160    22.6310 ha         1 WJQ       0.125000
     23 H28          7.1540     7.6130    24.9710 ha         1 WJQ       0.121000
     24 H29          4.9290     6.6940    25.5550 ha         1 WJQ       0.132000
     25 H21          8.6770     7.3400    18.6140 h1         1 WJQ       0.074700
     26 H20          7.8650     8.9220    18.7650 h1         1 WJQ       0.074700
     27 H1           7.3440     7.0810    14.5280 hn         1 WJQ       0.354500
     28 H26          3.7450     6.9940    21.4400 ha         1 WJQ       0.147000
     29 O12          6.9770     4.6270    15.2350 o          1 WJQ      -0.460000
@<TRIPOS>BOND
     1     1     2 1   
     2     1     3 1   
     3     1    11 1   
     4     1    12 1   
     5     2    13 1   
     6     2    14 2   
     7     3    16 1   
     8     3    19 1   
     9     3    20 1   
    10     4     5 1   
    11     4    11 1   
    12     5     6 1   
    13     5    16 1   
    14     5    21 1   
    15     6     7 ar  
    16     6    17 ar  
    17     7     9 ar  
    18     7    22 1   
    19     8    10 ar  
    20     8    17 ar  
    21     8    18 1   
    22     9    10 ar  
    23     9    23 1   
    24    10    24 1   
    25    11    25 1   
    26    11    26 1   
    27    12    15 1   
    28    13    15 1   
    29    13    27 1   
    30    15    29 2   
    31    17    28 1   
@<TRIPOS>SUBSTRUCTURE
     1 WJQ         1 TEMP              0 ****  ****    0 ROOT
