@<TRIPOS>MOLECULE
WJQ
   29    31     1     0     0
SMALL
No Charge or Current Charge


@<TRIPOS>ATOM
      1 C01          6.6210     7.4150    17.7620 c5         1 WJQ      -0.110000
      2 C02          7.1450     7.8290    16.3680 c          1 WJQ       0.581000
      3 C05          5.6510     8.4920    18.3170 c6         1 WJQ       0.179100
      4 O08          7.2910     7.0720    20.1020 os         1 WJQ      -0.450500
      5 C11          6.4000     8.0990    20.5710 c6         1 WJQ       0.418600
      6 C13          5.8920     7.7130    21.9610 ca         1 WJQ      -0.085300
      7 C15          6.1230     8.5590    23.0640 ca         1 WJQ      -0.071000
      8 C16          4.7220     6.1500    23.4260 ca         1 WJQ      -0.016900
      9 C17          5.6540     8.2010    24.3420 ca         1 WJQ      -0.115000
     10 C18          4.9540     6.9960    24.5230 ca         1 WJQ      -0.072000
     11 C03          7.7940     7.3140    18.7720 c6         1 WJQ       0.179100
     12 S04          5.7600     5.7600    17.5330 ss         1 WJQ      -0.205600
     13 N06          6.8060     6.8670    15.4740 ns         1 WJQ      -0.480500
     14 O07          7.7620     8.8360    16.0650 o          1 WJQ      -0.490000
     15 C09          6.1230     5.7390    15.7700 c          1 WJQ       0.582600
     16 O10          5.2780     8.1780    19.6750 os         1 WJQ      -0.450500
     17 C14          5.1890     6.5050    22.1480 ca         1 WJQ      -0.047000
     18 Br19         3.7690     4.5100    23.6690 br         1 WJQ      -0.106100
     19 H23          6.1220     9.4860    18.2950 h1         1 WJQ       0.074700
     20 H22          4.7420     8.5400    17.6990 h1         1 WJQ       0.074700
     21 H25          6.9210     9.0670    20.6210 h2         1 WJQ       0.041700
     22 H27          6.6640     9.4940    22.9330 ha         1 WJQ       0.125000
     23 H28          5.8350     8.8580    25.1900 ha         1 WJQ       0.121000
     24 H29          4.5920     6.7200    25.5110 ha         1 WJQ       0.132000
     25 H21          8.4690     6.4920    18.4910 h1         1 WJQ       0.074700
     26 H20          8.3840     8.2430    18.7760 h1         1 WJQ       0.074700
     27 H1           7.0850     7.0030    14.5140 hn         1 WJQ       0.354500
     28 H26          5.0070     5.8460    21.3020 ha         1 WJQ       0.147000
     29 O12          5.8190     4.8740    14.9670 o          1 WJQ      -0.460000
@<TRIPOS>BOND
     1     1     2 1   
     2     1     3 1   
     3     1    11 1   
     4     1    12 1   
     5     2    13 1   
     6     2    14 2   
     7     3    16 1   
     8     3    19 1   
     9     3    20 1   
    10     4     5 1   
    11     4    11 1   
    12     5     6 1   
    13     5    16 1   
    14     5    21 1   
    15     6     7 ar  
    16     6    17 ar  
    17     7     9 ar  
    18     7    22 1   
    19     8    10 ar  
    20     8    17 ar  
    21     8    18 1   
    22     9    10 ar  
    23     9    23 1   
    24    10    24 1   
    25    11    25 1   
    26    11    26 1   
    27    12    15 1   
    28    13    15 1   
    29    13    27 1   
    30    15    29 2   
    31    17    28 1   
@<TRIPOS>SUBSTRUCTURE
     1 WJQ         1 TEMP              0 ****  ****    0 ROOT
