@<TRIPOS>MOLECULE
WJT
   66    69     1     0     0
SMALL
No Charge or Current Charge


@<TRIPOS>ATOM
      1 N1         -35.5540   -30.1460   -69.0020 n3         1 WJT      -0.722600
      2 N3         -42.8290   -23.8820   -62.4210 nb         1 WJT      -0.305000
      3 C4         -36.2240   -31.3980   -69.4820 c6         1 WJT       0.166800
      4 C5         -34.2610   -30.4200   -68.2580 c6         1 WJT       0.173500
      5 C6         -33.4810   -29.1180   -67.8210 c3         1 WJT       0.157600
      6 C7         -36.5170   -29.2440   -68.3010 c3         1 WJT       0.224100
      7 C8         -37.1590   -29.8440   -67.0450 ca         1 WJT      -0.115300
      8 C10        -38.9880   -31.0810   -65.9950 ca         1 WJT      -0.097500
      9 C13        -40.6610   -29.5970   -63.1430 ca         1 WJT       0.319000
     10 C15        -42.6770   -29.1500   -64.4480 ca         1 WJT      -0.230500
     11 C17        -42.6450   -27.8040   -64.0290 ca         1 WJT      -0.031000
     12 C20        -40.4180   -25.2410   -62.2440 ca         1 WJT      -0.110000
     13 C21        -40.4910   -23.8880   -61.8540 ca         1 WJT      -0.116000
     14 C22        -41.7320   -23.2370   -61.9580 ca         1 WJT       0.272900
     15 C24        -37.1590   -30.2440   -64.6340 ca         1 WJT      -0.097500
     16 C1         -33.3010   -31.3510   -69.0940 c6         1 WJT       0.137300
     17 C11        -38.3780   -30.9420   -64.7330 ca         1 WJT      -0.122300
     18 C12        -39.0320   -31.5300   -63.4870 c3         1 WJT       0.277100
     19 C14        -41.6830   -30.0430   -63.9960 ca         1 WJT      -0.090000
     20 C18        -41.6240   -27.3230   -63.1630 cp         1 WJT      -0.119500
     21 C19        -41.5940   -25.8830   -62.7190 cp         1 WJT       0.343500
     22 C2         -34.0360   -32.6490   -69.5240 c6         1 WJT       0.131300
     23 C23        -40.6400   -28.2550   -62.7300 ca         1 WJT      -0.135000
     24 C25        -36.5560   -29.6960   -65.7790 ca         1 WJT      -0.094000
     25 C3         -35.2920   -32.2860   -70.3510 c6         1 WJT       0.175300
     26 C9         -38.3850   -30.5320   -67.1400 ca         1 WJT      -0.094000
     27 N2         -39.6650   -30.4670   -62.6870 nu         1 WJT      -0.983200
     28 N4         -42.7540   -25.1780   -62.7930 nb         1 WJT      -0.316000
     29 O1         -32.1000   -31.7120   -68.3660 oh         1 WJT      -0.740000
     30 O2         -33.1510   -33.4970   -70.2820 oh         1 WJT      -0.673000
     31 O3         -35.9500   -33.4920   -70.7820 oh         1 WJT      -0.725000
     32 O4         -32.9930   -28.3360   -68.9270 oh         1 WJT      -0.654000
     33 S1         -43.9920   -29.7320   -65.5440 sy         1 WJT       1.075500
     34 H2         -37.1120   -31.1440   -70.0790 h1         1 WJT       0.051700
     35 H3         -36.5710   -31.9970   -68.6270 h1         1 WJT       0.051700
     36 H4         -34.5050   -30.9600   -67.3300 h1         1 WJT       0.043700
     37 H5         -32.6400   -29.4180   -67.1820 h1         1 WJT       0.025700
     38 H6         -34.1280   -28.5010   -67.1880 h1         1 WJT       0.025700
     39 H7         -36.0440   -28.2880   -68.0400 h1         1 WJT       0.067200
     40 H8         -37.3260   -28.9780   -68.9950 h1         1 WJT       0.067200
     41 H9         -39.9320   -31.6120   -66.0910 ha         1 WJT       0.111000
     42 H10        -43.4160   -27.1200   -64.3830 ha         1 WJT       0.158000
     43 H12        -39.6170   -23.3580   -61.4870 ha         1 WJT       0.132000
     44 H13        -41.8520   -22.1920   -61.6730 h4         1 WJT       0.031100
     45 H14        -36.6800   -30.1210   -63.6650 ha         1 WJT       0.111000
     46 H15        -33.0290   -30.8070   -70.0120 h1         1 WJT       0.074700
     47 H16        -39.7740   -32.2860   -63.7790 h1         1 WJT       0.057700
     48 H17        -38.2660   -32.0460   -62.8900 h1         1 WJT       0.057700
     49 H18        -41.7080   -31.0850   -64.3010 ha         1 WJT       0.141000
     50 H19        -45.5610   -29.4240   -63.7900 h1         1 WJT       0.103033
     51 H20        -46.1070   -30.6550   -64.9870 h1         1 WJT       0.103033
     52 H21        -44.8380   -31.0740   -63.7780 h1         1 WJT       0.103033
     53 H22        -34.3590   -33.1730   -68.6120 h1         1 WJT       0.053700
     54 H23        -39.8520   -27.9380   -62.0540 ha         1 WJT       0.110000
     55 H24        -35.6210   -29.1540   -65.6740 ha         1 WJT       0.113500
     56 H25        -34.9780   -31.6970   -71.2270 h1         1 WJT       0.060700
     57 H26        -38.8740   -30.6460   -68.1050 ha         1 WJT       0.113500
     58 H27        -39.0660   -30.0650   -61.9640 hn         1 WJT       0.485000
     59 H28        -31.5110   -30.9210   -68.3790 ho         1 WJT       0.510000
     60 H29        -32.2790   -33.4010   -69.8320 ho         1 WJT       0.460000
     61 H30        -35.2050   -34.1110   -70.9790 ho         1 WJT       0.521000
     62 H31        -32.6460   -27.4960   -68.5550 ho         1 WJT       0.438000
     63 H11        -39.4710   -25.7680   -62.1930 ha         1 WJT       0.130000
     64 C16        -45.2600   -30.2800   -64.4030 c3         1 WJT      -0.339100
     65 O5         -43.5250   -30.9300   -66.2550 o          1 WJT      -0.528500
     66 O6         -44.5510   -28.5850   -66.2710 o          1 WJT      -0.528500
@<TRIPOS>BOND
     1     1     3 1   
     2     1     4 1   
     3     1     6 1   
     4     2    14 ar  
     5     2    28 ar  
     6     3    25 1   
     7     3    34 1   
     8     3    35 1   
     9     4     5 1   
    10     4    16 1   
    11     4    36 1   
    12     5    32 1   
    13     5    37 1   
    14     5    38 1   
    15     6     7 1   
    16     6    39 1   
    17     6    40 1   
    18     7    24 ar  
    19     7    26 ar  
    20     8    17 ar  
    21     8    26 ar  
    22     8    41 1   
    23     9    19 ar  
    24     9    23 ar  
    25     9    27 1   
    26    10    11 ar  
    27    10    19 ar  
    28    10    33 1   
    29    11    20 ar  
    30    11    42 1   
    31    12    13 ar  
    32    12    21 ar  
    33    12    63 1   
    34    13    14 ar  
    35    13    43 1   
    36    14    44 1   
    37    15    17 ar  
    38    15    24 ar  
    39    15    45 1   
    40    16    22 1   
    41    16    29 1   
    42    16    46 1   
    43    17    18 1   
    44    18    27 1   
    45    18    47 1   
    46    18    48 1   
    47    19    49 1   
    48    20    21 1   
    49    20    23 ar  
    50    21    28 ar  
    51    22    25 1   
    52    22    30 1   
    53    22    53 1   
    54    23    54 1   
    55    24    55 1   
    56    25    31 1   
    57    25    56 1   
    58    26    57 1   
    59    27    58 1   
    60    29    59 1   
    61    30    60 1   
    62    31    61 1   
    63    32    62 1   
    64    33    64 1   
    65    33    65 2   
    66    33    66 2   
    67    50    64 1   
    68    51    64 1   
    69    52    64 1   
@<TRIPOS>SUBSTRUCTURE
     1 WJT         1 TEMP              0 ****  ****    0 ROOT
