@<TRIPOS>MOLECULE
WJT
   66    69     1     0     0
SMALL
abcg2


@<TRIPOS>ATOM
      1 N1         -35.7060   -30.9460   -69.2820 n3         1 WJT      -0.722600
      2 N3         -43.1230   -24.2590   -60.9250 nb         1 WJT      -0.305000
      3 C4         -35.8700   -32.3920   -69.1750 c6         1 WJT       0.166800
      4 C5         -34.5390   -30.4550   -68.5400 c6         1 WJT       0.173500
      5 C6         -34.3460   -28.9490   -68.6560 c3         1 WJT       0.157600
      6 C7         -36.9750   -30.2410   -69.0360 c3         1 WJT       0.224100
      7 C8         -37.5860   -30.4540   -67.6640 ca         1 WJT      -0.115300
      8 C10        -39.0130   -31.7490   -66.1900 ca         1 WJT      -0.097500
      9 C13        -40.4490   -29.1480   -63.2190 ca         1 WJT       0.319000
     10 C15        -42.2500   -28.3000   -64.5720 ca         1 WJT      -0.230500
     11 C17        -42.4060   -27.1830   -63.7700 ca         1 WJT      -0.031000
     12 C20        -40.5880   -25.3010   -61.1140 ca         1 WJT      -0.110000
     13 C21        -40.8110   -24.2000   -60.3230 ca         1 WJT      -0.116000
     14 C22        -42.1140   -23.7090   -60.2600 ca         1 WJT       0.272900
     15 C24        -37.7960   -29.8850   -65.3140 ca         1 WJT      -0.097500
     16 C1         -33.2780   -31.1770   -69.0560 c6         1 WJT       0.137300
     17 C11        -38.6700   -30.9480   -65.1040 ca         1 WJT      -0.122300
     18 C12        -39.2390   -31.2520   -63.7290 c3         1 WJT       0.277100
     19 C14        -41.3010   -29.2840   -64.3260 ca         1 WJT      -0.090000
     20 C18        -41.5530   -27.0390   -62.6690 cp         1 WJT      -0.119500
     21 C19        -41.6850   -25.8530   -61.7910 cp         1 WJT       0.343500
     22 C2         -33.4240   -32.6860   -68.9880 c6         1 WJT       0.131300
     23 C23        -40.5910   -28.0060   -62.4080 ca         1 WJT      -0.135000
     24 C25        -37.2640   -29.6420   -66.5750 ca         1 WJT      -0.094000
     25 C3         -34.6640   -33.1230   -69.7350 c6         1 WJT       0.175300
     26 C9         -38.4790   -31.5060   -67.4490 ca         1 WJT      -0.094000
     27 N2         -39.5170   -30.0970   -62.9040 nu         1 WJT      -0.983200
     28 N4         -42.9100   -25.3270   -61.6830 nb         1 WJT      -0.316000
     29 O1         -32.1300   -30.8460   -68.2670 oh         1 WJT      -0.740000
     30 O2         -32.2980   -33.3460   -69.5650 oh         1 WJT      -0.673000
     31 O3         -34.9000   -34.5230   -69.5890 oh         1 WJT      -0.725000
     32 O4         -34.2060   -28.5790   -70.0300 oh         1 WJT      -0.654000
     33 S1         -43.3170   -28.5020   -65.9780 sy         1 WJT       1.075500
     34 H2         -36.7560   -32.6820   -69.7420 h1         1 WJT       0.051700
     35 H3         -36.0230   -32.7240   -68.1360 h1         1 WJT       0.051700
     36 H4         -34.6230   -30.6750   -67.4620 h1         1 WJT       0.043700
     37 H5         -33.4490   -28.6840   -68.0910 h1         1 WJT       0.025700
     38 H6         -35.1810   -28.4130   -68.2050 h1         1 WJT       0.025700
     39 H7         -36.8220   -29.1790   -69.2210 h1         1 WJT       0.067200
     40 H8         -37.6770   -30.5980   -69.7920 h1         1 WJT       0.067200
     41 H9         -39.7160   -32.5640   -66.0530 ha         1 WJT       0.111000
     42 H10        -43.1480   -26.4340   -63.9960 ha         1 WJT       0.158000
     43 H12        -40.0120   -23.7190   -59.7760 ha         1 WJT       0.132000
     44 H13        -42.3640   -22.8420   -59.6600 h4         1 WJT       0.031100
     45 H14        -37.5380   -29.2330   -64.4880 ha         1 WJT       0.111000
     46 H15        -33.1080   -30.8870   -70.0950 h1         1 WJT       0.074700
     47 H16        -40.1470   -31.8490   -63.8500 h1         1 WJT       0.057700
     48 H17        -38.5330   -31.8700   -63.1720 h1         1 WJT       0.057700
     49 H18        -41.2170   -30.1270   -64.9930 ha         1 WJT       0.141000
     50 H19        -45.1470   -28.9680   -64.5630 h1         1 WJT       0.103033
     51 H20        -45.3310   -29.6580   -66.2090 h1         1 WJT       0.103033
     52 H21        -44.2420   -30.4500   -65.0230 h1         1 WJT       0.103033
     53 H22        -33.5270   -32.9810   -67.9350 h1         1 WJT       0.053700
     54 H23        -39.9410   -27.9070   -61.5480 ha         1 WJT       0.110000
     55 H24        -36.5960   -28.8010   -66.7070 ha         1 WJT       0.113500
     56 H25        -34.5440   -32.8730   -70.7950 h1         1 WJT       0.060700
     57 H26        -38.7690   -32.1360   -68.2820 ha         1 WJT       0.113500
     58 H27        -38.8460   -29.8620   -62.1920 hn         1 WJT       0.485000
     59 H28        -31.6790   -30.0940   -68.6670 ho         1 WJT       0.510000
     60 H29        -31.5090   -33.0020   -69.1240 ho         1 WJT       0.460000
     61 H30        -34.0910   -34.9820   -69.8490 ho         1 WJT       0.521000
     62 H31        -33.9900   -27.6400   -70.0640 ho         1 WJT       0.438000
     63 H11        -39.5980   -25.7200   -61.2270 ha         1 WJT       0.130000
     64 C16        -44.6530   -29.5030   -65.3710 c3         1 WJT      -0.339100
     65 O5         -42.6040   -29.2620   -66.9910 o          1 WJT      -0.528500
     66 O6         -43.8480   -27.2020   -66.3480 o          1 WJT      -0.528500
@<TRIPOS>BOND
     1     1     3 1   
     2     1     4 1   
     3     1     6 1   
     4     2    14 ar  
     5     2    28 ar  
     6     3    25 1   
     7     3    34 1   
     8     3    35 1   
     9     4     5 1   
    10     4    16 1   
    11     4    36 1   
    12     5    32 1   
    13     5    37 1   
    14     5    38 1   
    15     6     7 1   
    16     6    39 1   
    17     6    40 1   
    18     7    24 ar  
    19     7    26 ar  
    20     8    17 ar  
    21     8    26 ar  
    22     8    41 1   
    23     9    19 ar  
    24     9    23 ar  
    25     9    27 1   
    26    10    11 ar  
    27    10    19 ar  
    28    10    33 1   
    29    11    20 ar  
    30    11    42 1   
    31    12    13 ar  
    32    12    21 ar  
    33    12    63 1   
    34    13    14 ar  
    35    13    43 1   
    36    14    44 1   
    37    15    17 ar  
    38    15    24 ar  
    39    15    45 1   
    40    16    22 1   
    41    16    29 1   
    42    16    46 1   
    43    17    18 1   
    44    18    27 1   
    45    18    47 1   
    46    18    48 1   
    47    19    49 1   
    48    20    21 1   
    49    20    23 ar  
    50    21    28 ar  
    51    22    25 1   
    52    22    30 1   
    53    22    53 1   
    54    23    54 1   
    55    24    55 1   
    56    25    31 1   
    57    25    56 1   
    58    26    57 1   
    59    27    58 1   
    60    29    59 1   
    61    30    60 1   
    62    31    61 1   
    63    32    62 1   
    64    33    64 1   
    65    33    65 2   
    66    33    66 2   
    67    50    64 1   
    68    51    64 1   
    69    52    64 1   
@<TRIPOS>SUBSTRUCTURE
     1 WJT         1 TEMP              0 ****  ****    0 ROOT
