@<TRIPOS>MOLECULE
WJU
   48    52     1     0     0
SMALL
abcg2


@<TRIPOS>ATOM
      1 C10          3.8360     6.4560    19.3760 cp         1 WJU       0.086000
      2 C11          2.5510     5.7360    19.2150 cp         1 WJU      -0.069000
      3 C13          1.2570     3.7130    19.4020 ca         1 WJU      -0.110000
      4 C15          0.2300     5.7210    18.5730 ca         1 WJU      -0.110000
      5 C16          1.4310     6.4010    18.7260 ca         1 WJU      -0.086000
      6 C17          4.0820     6.5710    16.9420 cc         1 WJU       0.570200
      7 C20          7.1010     6.8090    16.5350 c6         1 WJU       0.206800
      8 C21          7.4460     7.3510    15.1590 c6         1 WJU      -0.082900
      9 C22          8.4560     8.4870    15.2700 c6         1 WJU      -0.073400
     10 C23          7.9520     9.5430    16.2440 c6         1 WJU      -0.082900
     11 C24          7.5840     8.9370    17.5910 c6         1 WJU       0.206800
     12 C27          3.3490     7.1270    14.9600 c          1 WJU       0.655100
     13 C1           3.9860     7.0290    23.0500 ca         1 WJU       0.100000
     14 C2           5.1610     7.7950    23.1500 ca         1 WJU      -0.078000
     15 C3           5.8720     8.0890    22.0190 ca         1 WJU      -0.094000
     16 C4           5.4460     7.6270    20.7550 ca         1 WJU       0.326000
     17 C5           4.2680     6.8510    20.6730 ca         1 WJU      -0.110000
     18 C6           3.5380     6.5620    21.8450 ca         1 WJU      -0.061000
     19 N7           6.1960     7.9320    19.6760 nb         1 WJU      -0.744000
     20 C8           5.8240     7.5380    18.4880 ca         1 WJU       0.642900
     21 C9           4.5940     6.8150    18.2900 ca         1 WJU      -0.182900
     22 C12          2.4580     4.3910    19.5590 ca         1 WJU      -0.086000
     23 C14          0.1420     4.3770    18.9080 ca         1 WJU      -0.098000
     24 N18          6.6040     7.8750    17.4070 nh         1 WJU      -0.760300
     25 CL19         3.0930     6.6900    24.4940 cl         1 WJU      -0.197000
     26 N25          3.7490     5.4580    16.4150 nd         1 WJU      -0.465300
     27 N26          3.2860     5.7980    15.1870 ns         1 WJU      -0.400400
     28 O28          3.8670     7.6280    16.1240 os         1 WJU      -0.375700
     29 O29          3.0480     7.7960    14.0100 o          1 WJU      -0.502000
     30 H34          1.1940     2.6660    19.6650 ha         1 WJU       0.117500
     31 H36         -0.6370     6.2450    18.1920 ha         1 WJU       0.117500
     32 H37          1.4970     7.4500    18.4660 ha         1 WJU       0.122000
     33 H39          6.3770     6.0020    16.4560 h1         1 WJU       0.045700
     34 H40          7.8420     6.5370    14.5480 hc         1 WJU       0.051700
     35 H41          6.5360     7.7060    14.6680 hc         1 WJU       0.051700
     36 H42          9.4110     8.0870    15.6270 hc         1 WJU       0.042200
     37 H43          8.6480     8.9290    14.2910 hc         1 WJU       0.042200
     38 H44          8.7100    10.3130    16.4040 hc         1 WJU       0.051700
     39 H45          7.0730    10.0420    15.8280 hc         1 WJU       0.051700
     40 H46          7.1590     9.7020    18.2380 h1         1 WJU       0.045700
     41 H47          8.4850     8.5580    18.0930 h1         1 WJU       0.045700
     42 H30          5.4950     8.1500    24.1150 ha         1 WJU       0.133000
     43 H31          6.7770     8.6790    22.0780 ha         1 WJU       0.137000
     44 H32          2.6260     5.9830    21.7890 ha         1 WJU       0.140000
     45 H33          3.3280     3.8700    19.9400 ha         1 WJU       0.122000
     46 H35         -0.7940     3.8480    18.7860 ha         1 WJU       0.116000
     47 H48          2.9580     5.0930    14.5450 hn         1 WJU       0.497000
     48 H38          8.0010     6.3670    16.9890 h1         1 WJU       0.045700
@<TRIPOS>BOND
     1     1     2 1   
     2     1    17 ar  
     3     1    21 ar  
     4     2     5 ar  
     5     2    22 ar  
     6     3    22 ar  
     7     3    23 ar  
     8     3    30 1   
     9     4     5 ar  
    10     4    23 ar  
    11     4    31 1   
    12     5    32 1   
    13     6    21 1   
    14     6    26 2   
    15     6    28 1   
    16     7     8 1   
    17     7    24 1   
    18     7    33 1   
    19     7    48 1   
    20     8     9 1   
    21     8    34 1   
    22     8    35 1   
    23     9    10 1   
    24     9    36 1   
    25     9    37 1   
    26    10    11 1   
    27    10    38 1   
    28    10    39 1   
    29    11    24 1   
    30    11    40 1   
    31    11    41 1   
    32    12    27 1   
    33    12    28 1   
    34    12    29 2   
    35    13    14 ar  
    36    13    18 ar  
    37    13    25 1   
    38    14    15 ar  
    39    14    42 1   
    40    15    16 ar  
    41    15    43 1   
    42    16    17 ar  
    43    16    19 ar  
    44    17    18 ar  
    45    18    44 1   
    46    19    20 ar  
    47    20    21 ar  
    48    20    24 1   
    49    22    45 1   
    50    23    46 1   
    51    26    27 1   
    52    27    47 1   
@<TRIPOS>SUBSTRUCTURE
     1 WJU         1 TEMP              0 ****  ****    0 ROOT
