@<TRIPOS>MOLECULE
WJU
   48    52     1     0     0
SMALL
No Charge or Current Charge


@<TRIPOS>ATOM
      1 C10          3.7830     6.5000    19.4230 cp         1 WJU       0.086000
      2 C11          2.4670     5.8170    19.2470 cp         1 WJU      -0.069000
      3 C13          1.0480     3.8290    19.4760 ca         1 WJU      -0.110000
      4 C15          0.1340     5.8560    18.4890 ca         1 WJU      -0.110000
      5 C16          1.3720     6.4980    18.6620 ca         1 WJU      -0.086000
      6 C17          4.1520     6.5980    16.9330 cc         1 WJU       0.570200
      7 C20          7.4040     6.7820    16.7660 c6         1 WJU       0.206800
      8 C21          7.6990     7.1760    15.2980 c6         1 WJU      -0.082900
      9 C22          8.4270     8.5400    15.2210 c6         1 WJU      -0.073400
     10 C23          7.6240     9.6190    15.9860 c6         1 WJU      -0.082900
     11 C24          7.3260     9.1760    17.4400 c6         1 WJU       0.206800
     12 C27          3.4780     7.1310    14.8690 c          1 WJU       0.655100
     13 C1           4.0940     6.8490    23.1470 ca         1 WJU       0.100000
     14 C2           5.3340     7.4910    23.2480 ca         1 WJU      -0.078000
     15 C3           6.0510     7.8070    22.0810 ca         1 WJU      -0.094000
     16 C4           5.5450     7.4850    20.8080 ca         1 WJU       0.326000
     17 C5           4.2950     6.8240    20.7080 ca         1 WJU      -0.110000
     18 C6           3.5730     6.5180    21.8870 ca         1 WJU      -0.061000
     19 N7           6.2660     7.8140    19.7190 nb         1 WJU      -0.744000
     20 C8           5.7800     7.5160    18.5050 ca         1 WJU       0.642900
     21 C9           4.5510     6.8810    18.2970 ca         1 WJU      -0.182900
     22 C12          2.2860     4.4720    19.6480 ca         1 WJU      -0.086000
     23 C14         -0.0280     4.5210    18.8970 ca         1 WJU      -0.098000
     24 N18          6.6400     7.8560    17.4520 nh         1 WJU      -0.760300
     25 Cl19         3.1860     6.4590    24.6020 cl         1 WJU      -0.197000
     26 N25          3.7650     5.4410    16.3980 nd         1 WJU      -0.465300
     27 N26          3.3830     5.8080    15.1460 ns         1 WJU      -0.400400
     28 O28          3.9620     7.6210    16.0350 os         1 WJU      -0.375700
     29 O29          3.2010     7.7280    13.8430 o          1 WJU      -0.502000
     30 H34          0.9240     2.7950    19.7900 ha         1 WJU       0.117500
     31 H36         -0.6990     6.3930    18.0400 ha         1 WJU       0.117500
     32 H37          1.4880     7.5320    18.3450 ha         1 WJU       0.122000
     33 H39          6.8420     5.8370    16.7760 h1         1 WJU       0.045700
     34 H40          8.3070     6.3970    14.8190 hc         1 WJU       0.051700
     35 H41          6.7560     7.2270    14.7370 hc         1 WJU       0.051700
     36 H42          9.4330     8.4480    15.6560 hc         1 WJU       0.042200
     37 H43          8.5610     8.8390    14.1730 hc         1 WJU       0.042200
     38 H44          8.1780    10.5670    15.9930 hc         1 WJU       0.051700
     39 H45          6.6770     9.8140    15.4640 hc         1 WJU       0.051700
     40 H46          6.6970     9.9410    17.9190 h1         1 WJU       0.045700
     41 H47          8.2680     9.1190    18.0060 h1         1 WJU       0.045700
     42 H30          5.7380     7.7480    24.2240 ha         1 WJU       0.133000
     43 H31          7.0100     8.3100    22.1610 ha         1 WJU       0.137000
     44 H32          2.6040     6.0300    21.8420 ha         1 WJU       0.140000
     45 H33          3.1160     3.9260    20.0930 ha         1 WJU       0.122000
     46 H35         -0.9870     4.0240    18.7630 ha         1 WJU       0.116000
     47 H48          3.0240     5.1640    14.4370 hn         1 WJU       0.497000
     48 H38          8.3530     6.6030    17.2930 h1         1 WJU       0.045700
@<TRIPOS>BOND
     1     1     2 1   
     2     1    17 ar  
     3     1    21 ar  
     4     2     5 ar  
     5     2    22 ar  
     6     3    22 ar  
     7     3    23 ar  
     8     3    30 1   
     9     4     5 ar  
    10     4    23 ar  
    11     4    31 1   
    12     5    32 1   
    13     6    21 1   
    14     6    26 2   
    15     6    28 1   
    16     7     8 1   
    17     7    24 1   
    18     7    33 1   
    19     7    48 1   
    20     8     9 1   
    21     8    34 1   
    22     8    35 1   
    23     9    10 1   
    24     9    36 1   
    25     9    37 1   
    26    10    11 1   
    27    10    38 1   
    28    10    39 1   
    29    11    24 1   
    30    11    40 1   
    31    11    41 1   
    32    12    27 1   
    33    12    28 1   
    34    12    29 2   
    35    13    14 ar  
    36    13    18 ar  
    37    13    25 1   
    38    14    15 ar  
    39    14    42 1   
    40    15    16 ar  
    41    15    43 1   
    42    16    17 ar  
    43    16    19 ar  
    44    17    18 ar  
    45    18    44 1   
    46    19    20 ar  
    47    20    21 ar  
    48    20    24 1   
    49    22    45 1   
    50    23    46 1   
    51    26    27 1   
    52    27    47 1   
@<TRIPOS>SUBSTRUCTURE
     1 WJU         1 TEMP              0 ****  ****    0 ROOT
