@<TRIPOS>MOLECULE
WJV
   53    54     1     0     0
SMALL
No Charge or Current Charge


@<TRIPOS>ATOM
      1 C1          19.4610    -7.5030    25.3160 c3         1 WJV      -0.125400
      2 C11         11.2650    -5.8790    24.0240 c3         1 WJV       0.075000
      3 C12         10.4060    -7.1500    23.7950 c3         1 WJV       0.129600
      4 C14         11.2370    -7.7090    21.5220 c3         1 WJV       0.154600
      5 C15          9.8760    -7.7130    20.7650 c3         1 WJV      -0.101400
      6 C16          9.1650    -9.0890    20.5230 c3         1 WJV      -0.037000
      7 C17         10.0890   -10.0550    19.7330 c3         1 WJV      -0.084433
      8 C18          8.7360    -9.7620    21.8540 c3         1 WJV      -0.084433
      9 C19          7.8880    -8.8280    19.6790 c3         1 WJV      -0.084433
     10 C2          18.2950    -7.0550    24.4800 cc         1 WJV       0.364300
     11 C20         19.4750    -6.5650    22.3040 ch         1 WJV      -0.036000
     12 C21         20.4800    -6.5130    21.6150 cg         1 WJV      -0.132000
     13 C22         21.6710    -6.4570    20.8200 ca         1 WJV       0.081000
     14 C23         22.9080    -6.8570    21.3470 ca         1 WJV      -0.149500
     15 C24         24.0500    -6.7870    20.5330 ca         1 WJV       0.333900
     16 C26         22.8200    -5.9620    18.7490 ca         1 WJV       0.333900
     17 C27         21.6300    -6.0000    19.4930 ca         1 WJV      -0.149500
     18 C3          18.3530    -6.6540    23.1670 cd         1 WJV      -0.197000
     19 C5          16.1520    -6.6130    24.1710 cd         1 WJV       0.562300
     20 C8          13.7670    -6.1250    23.8370 c          1 WJV       0.667100
     21 N10         12.6040    -6.1770    24.5610 ns         1 WJV      -0.494900
     22 N25         24.0160    -6.3470    19.2530 nb         1 WJV      -0.663000
     23 N6          17.0470    -7.0320    25.0500 nc         1 WJV      -0.728000
     24 N7          14.8470    -6.5280    24.5620 ns         1 WJV      -0.488400
     25 O13         11.0810    -8.0810    22.9130 os         1 WJV      -0.445000
     26 O9          13.8160    -5.7500    22.6800 o          1 WJV      -0.620100
     27 S4          16.7740    -6.2110    22.5610 ss         1 WJV       0.097600
     28 H1          20.2110    -6.7080    25.3890 hc         1 WJV       0.053033
     29 H2          19.1500    -7.7700    26.3330 hc         1 WJV       0.053033
     30 H3          19.9400    -8.3810    24.8680 hc         1 WJV       0.053033
     31 H4          11.3500    -5.3090    23.0910 h1         1 WJV       0.065200
     32 H5          10.7450    -5.2340    24.7450 h1         1 WJV       0.065200
     33 H6           9.4210    -6.8630    23.4060 h1         1 WJV       0.048200
     34 H7          10.2370    -7.6280    24.7680 h1         1 WJV       0.048200
     35 H8          11.9290    -8.4020    21.0260 h1         1 WJV       0.053700
     36 H9          11.6840    -6.7120    21.4330 h1         1 WJV       0.053700
     37 H10         10.0690    -7.2620    19.7840 hc         1 WJV       0.039200
     38 H11          9.1800    -7.0240    21.2560 hc         1 WJV       0.039200
     39 H12         10.9700   -10.3360    20.3210 hc         1 WJV       0.033367
     40 H13          9.5570   -10.9790    19.4750 hc         1 WJV       0.033367
     41 H14         10.4340    -9.5930    18.8000 hc         1 WJV       0.033367
     42 H15          8.1540    -9.0700    22.4750 hc         1 WJV       0.033367
     43 H16          8.1140   -10.6450    21.6620 hc         1 WJV       0.033367
     44 H17          9.6030   -10.0990    22.4330 hc         1 WJV       0.033367
     45 H18          7.1990    -8.1560    20.2060 hc         1 WJV       0.033367
     46 H19          8.1390    -8.3660    18.7160 hc         1 WJV       0.033367
     47 H20          7.3530    -9.7630    19.4720 hc         1 WJV       0.033367
     48 H21         22.9910    -7.2180    22.3680 ha         1 WJV       0.129000
     49 H22         25.0230    -7.0910    20.9160 h4         1 WJV       0.019100
     50 H23         22.8170    -5.6120    17.7180 h4         1 WJV       0.019100
     51 H24         20.6960    -5.6790    19.0400 ha         1 WJV       0.129000
     52 H25         12.6680    -6.5020    25.5180 hn         1 WJV       0.314500
     53 H26         14.6520    -6.8020    25.5100 hn         1 WJV       0.337500
@<TRIPOS>BOND
     1     1    10 1   
     2     1    28 1   
     3     1    29 1   
     4     1    30 1   
     5     2     3 1   
     6     2    21 1   
     7     2    31 1   
     8     2    32 1   
     9     3    25 1   
    10     3    33 1   
    11     3    34 1   
    12     4     5 1   
    13     4    25 1   
    14     4    35 1   
    15     4    36 1   
    16     5     6 1   
    17     5    37 1   
    18     5    38 1   
    19     6     7 1   
    20     6     8 1   
    21     6     9 1   
    22     7    39 1   
    23     7    40 1   
    24     7    41 1   
    25     8    42 1   
    26     8    43 1   
    27     8    44 1   
    28     9    45 1   
    29     9    46 1   
    30     9    47 1   
    31    10    18 2   
    32    10    23 1   
    33    11    12 3   
    34    11    18 1   
    35    12    13 1   
    36    13    14 ar  
    37    13    17 ar  
    38    14    15 ar  
    39    14    48 1   
    40    15    22 ar  
    41    15    49 1   
    42    16    17 ar  
    43    16    22 ar  
    44    16    50 1   
    45    17    51 1   
    46    18    27 1   
    47    19    23 2   
    48    19    24 1   
    49    19    27 1   
    50    20    21 1   
    51    20    24 1   
    52    20    26 2   
    53    21    52 1   
    54    24    53 1   
@<TRIPOS>SUBSTRUCTURE
     1 WJV         1 TEMP              0 ****  ****    0 ROOT
