@<TRIPOS>MOLECULE
WJV
   53    54     1     0     0
SMALL
abcg2


@<TRIPOS>ATOM
      1 C1          19.3770    -7.6140    25.4490 c3         1 WJV      -0.125400
      2 C11         11.2960    -5.7270    24.1140 c3         1 WJV       0.075000
      3 C12         10.5730    -6.9820    23.6370 c3         1 WJV       0.129600
      4 C14         11.3980    -7.3650    21.4370 c3         1 WJV       0.154600
      5 C15         10.1350    -7.6170    20.6240 c3         1 WJV      -0.101400
      6 C16          9.6380    -9.0640    20.4580 c3         1 WJV      -0.037000
      7 C17         10.7720    -9.9920    20.0200 c3         1 WJV      -0.084433
      8 C18          9.0080    -9.5990    21.7460 c3         1 WJV      -0.084433
      9 C19          8.5610    -9.0530    19.3690 c3         1 WJV      -0.084433
     10 C2          18.1700    -7.1510    24.7150 cc         1 WJV       0.364300
     11 C20         19.1860    -6.7050    22.4790 ch         1 WJV      -0.036000
     12 C21         20.0840    -6.6540    21.6700 cg         1 WJV      -0.132000
     13 C22         21.1300    -6.6100    20.7140 ca         1 WJV       0.081000
     14 C23         22.4240    -7.0280    21.0340 ca         1 WJV      -0.149500
     15 C24         23.4030    -6.9640    20.0580 ca         1 WJV       0.333900
     16 C26         21.9560    -6.1320    18.5200 ca         1 WJV       0.333900
     17 C27         20.9010    -6.1500    19.4140 ca         1 WJV      -0.149500
     18 C3          18.1370    -6.7530    23.4030 cd         1 WJV      -0.197000
     19 C5          16.0310    -6.6620    24.5720 cd         1 WJV       0.562300
     20 C8          13.7130    -6.0820    24.2160 c          1 WJV       0.667100
     21 N10         12.5190    -6.0260    24.8250 ns         1 WJV      -0.494900
     22 N25         23.1890    -6.5270    18.8220 nb         1 WJV      -0.663000
     23 N6          16.9740    -7.0930    25.3570 nc         1 WJV      -0.728000
     24 N7          14.7490    -6.5400    25.0120 ns         1 WJV      -0.488400
     25 O13         11.3530    -7.7810    22.7870 os         1 WJV      -0.445000
     26 O9          13.9370    -5.7410    23.0640 o          1 WJV      -0.620100
     27 S4          16.5170    -6.2780    22.9590 ss         1 WJV       0.097600
     28 H1          19.5870    -6.9580    26.2950 hc         1 WJV       0.053033
     29 H2          19.2230    -8.6170    25.8490 hc         1 WJV       0.053033
     30 H3          20.2550    -7.6330    24.8060 hc         1 WJV       0.053033
     31 H4          11.5210    -5.0540    23.2880 h1         1 WJV       0.065200
     32 H5          10.6320    -5.1830    24.7880 h1         1 WJV       0.065200
     33 H6           9.6230    -6.6830    23.1780 h1         1 WJV       0.048200
     34 H7          10.3220    -7.5980    24.5050 h1         1 WJV       0.048200
     35 H8          12.2400    -7.9000    20.9920 h1         1 WJV       0.053700
     36 H9          11.6430    -6.2980    21.3630 h1         1 WJV       0.053700
     37 H10         10.3520    -7.2120    19.6280 hc         1 WJV       0.039200
     38 H11          9.3090    -7.0050    21.0060 hc         1 WJV       0.039200
     39 H12         11.5350   -10.1040    20.7920 hc         1 WJV       0.033367
     40 H13         10.3870   -10.9900    19.7990 hc         1 WJV       0.033367
     41 H14         11.2640    -9.6220    19.1170 hc         1 WJV       0.033367
     42 H15          8.2020    -8.9480    22.0920 hc         1 WJV       0.033367
     43 H16          8.5800   -10.5910    21.5790 hc         1 WJV       0.033367
     44 H17          9.7360    -9.6850    22.5510 hc         1 WJV       0.033367
     45 H18          7.7420    -8.3800    19.6310 hc         1 WJV       0.033367
     46 H19          8.9680    -8.7240    18.4100 hc         1 WJV       0.033367
     47 H20          8.1370   -10.0500    19.2260 hc         1 WJV       0.033367
     48 H21         22.6620    -7.3940    22.0240 ha         1 WJV       0.129000
     49 H22         24.4130    -7.2830    20.2910 h4         1 WJV       0.019100
     50 H23         21.7950    -5.7790    17.5080 h4         1 WJV       0.019100
     51 H24         19.9190    -5.8150    19.1080 ha         1 WJV       0.129000
     52 H25         12.4220    -6.3950    25.7580 hn         1 WJV       0.314500
     53 H26         14.5940    -6.8110    25.9740 hn         1 WJV       0.337500
@<TRIPOS>BOND
     1     1    10 1   
     2     1    28 1   
     3     1    29 1   
     4     1    30 1   
     5     2     3 1   
     6     2    21 1   
     7     2    31 1   
     8     2    32 1   
     9     3    25 1   
    10     3    33 1   
    11     3    34 1   
    12     4     5 1   
    13     4    25 1   
    14     4    35 1   
    15     4    36 1   
    16     5     6 1   
    17     5    37 1   
    18     5    38 1   
    19     6     7 1   
    20     6     8 1   
    21     6     9 1   
    22     7    39 1   
    23     7    40 1   
    24     7    41 1   
    25     8    42 1   
    26     8    43 1   
    27     8    44 1   
    28     9    45 1   
    29     9    46 1   
    30     9    47 1   
    31    10    18 2   
    32    10    23 1   
    33    11    12 3   
    34    11    18 1   
    35    12    13 1   
    36    13    14 ar  
    37    13    17 ar  
    38    14    15 ar  
    39    14    48 1   
    40    15    22 ar  
    41    15    49 1   
    42    16    17 ar  
    43    16    22 ar  
    44    16    50 1   
    45    17    51 1   
    46    18    27 1   
    47    19    23 2   
    48    19    24 1   
    49    19    27 1   
    50    20    21 1   
    51    20    24 1   
    52    20    26 2   
    53    21    52 1   
    54    24    53 1   
@<TRIPOS>SUBSTRUCTURE
     1 WJV         1 TEMP              0 ****  ****    0 ROOT
