@<TRIPOS>MOLECULE
WJZ
   18    17     1     0     0
SMALL
No Charge or Current Charge


@<TRIPOS>ATOM
      1 C01          2.8470     0.9570     1.1980 c3         1 WJZ      -0.076100
      2 N01         -0.4620     0.1580     0.1730 ns         1 WJZ      -0.445900
      3 O01         -3.9780    -0.2020    -0.4590 o          1 WJZ      -0.727500
      4 S01          3.0000    -1.1280    -0.7200 sh         1 WJZ      -0.475800
      5 C02          1.9890    -0.0950     0.4630 c3         1 WJZ       0.019300
      6 O02         -2.8540    -0.6370     1.3270 o          1 WJZ      -0.727500
      7 C03          0.7830     0.5590    -0.2660 c          1 WJZ       0.586100
      8 O03          0.9150     1.3710    -1.1770 o          1 WJZ      -0.660100
      9 C04         -1.7520     0.6510    -0.3640 c3         1 WJZ      -0.060000
     10 C05         -2.9690    -0.1150     0.2250 c          1 WJZ       0.714000
     11 H01          3.2910     1.6640     0.4870 hc         1 WJZ       0.041033
     12 H01A         2.2360     1.5220     1.9110 hc         1 WJZ       0.041033
     13 H01B         3.6590     0.4710     1.7520 hc         1 WJZ       0.041033
     14 HN01        -0.4920    -0.5160     0.9320 hn         1 WJZ       0.343500
     15 HS01         3.2320    -0.1330    -1.6140 hs         1 WJZ       0.225800
     16 H02          1.5840    -0.7800     1.2190 h1         1 WJZ       0.086700
     17 H04         -1.8610     1.7150    -0.1200 h1         1 WJZ       0.037700
     18 H04A        -1.7550     0.5340    -1.4550 h1         1 WJZ       0.037700
@<TRIPOS>BOND
     1     1     5 1   
     2     1    11 1   
     3     1    12 1   
     4     1    13 1   
     5     2     7 1   
     6     2     9 1   
     7     2    14 1   
     8     3    10 1   
     9     4     5 1   
    10     4    15 1   
    11     5     7 1   
    12     5    16 1   
    13     6    10 1   
    14     7     8 2   
    15     9    10 1   
    16     9    17 1   
    17     9    18 1   
@<TRIPOS>SUBSTRUCTURE
     1 WJZ         1 TEMP              0 ****  ****    0 ROOT
