@<TRIPOS>MOLECULE
WJZ
   18    17     1     0     0
SMALL
abcg2


@<TRIPOS>ATOM
      1 C01          2.8990     1.0020     1.1120 c3         1 WJZ      -0.076100
      2 N01         -0.4640     0.1550     0.1830 ns         1 WJZ      -0.445900
      3 O01         -4.0100     0.1400    -0.2750 o          1 WJZ      -0.727500
      4 S01          2.6890    -1.1970    -0.5810 sh         1 WJZ      -0.475800
      5 C02          1.9090    -0.0140     0.5750 c3         1 WJZ       0.019300
      6 O02         -2.6360    -1.1240     0.9510 o          1 WJZ      -0.727500
      7 C03          0.7330     0.6490    -0.1260 c          1 WJZ       0.586100
      8 O03          0.9050     1.5690    -0.9180 o          1 WJZ      -0.660100
      9 C04         -1.7030     0.6100    -0.3940 c3         1 WJZ      -0.060000
     10 C05         -2.8950    -0.2060     0.1490 c          1 WJZ       0.714000
     11 H01          3.3260     1.6030     0.3090 hc         1 WJZ       0.041033
     12 H01A         2.4090     1.6770     1.8160 hc         1 WJZ       0.041033
     13 H01B         3.7120     0.5000     1.6350 hc         1 WJZ       0.041033
     14 HN01        -0.5580    -0.6150     0.8310 hn         1 WJZ       0.343500
     15 HS01         3.0910    -0.2960    -1.4870 hs         1 WJZ       0.225800
     16 H02          1.5530    -0.6460     1.3920 h1         1 WJZ       0.086700
     17 H04         -1.8660     1.6690    -0.1760 h1         1 WJZ       0.037700
     18 H04A        -1.6800     0.5200    -1.4850 h1         1 WJZ       0.037700
@<TRIPOS>BOND
     1     1     5 1   
     2     1    11 1   
     3     1    12 1   
     4     1    13 1   
     5     2     7 1   
     6     2     9 1   
     7     2    14 1   
     8     3    10 1   
     9     4     5 1   
    10     4    15 1   
    11     5     7 1   
    12     5    16 1   
    13     6    10 1   
    14     7     8 2   
    15     9    10 1   
    16     9    17 1   
    17     9    18 1   
@<TRIPOS>SUBSTRUCTURE
     1 WJZ         1 TEMP              0 ****  ****    0 ROOT
