@<TRIPOS>MOLECULE
WK0
   39    41     1     0     0
SMALL
abcg2


@<TRIPOS>ATOM
      1 C1          13.3440    -7.7340    -7.0510 c3         1 WK0      -0.176700
      2 C2          13.8880    -7.8750    -8.4850 c3         1 WK0       0.026900
      3 C3          12.9250    -8.5680    -9.4240 ca         1 WK0      -0.029300
      4 C4          11.5500    -8.3250    -9.4140 ca         1 WK0      -0.094500
      5 C5          10.7040    -8.9660   -10.3140 ca         1 WK0      -0.121500
      6 C6          11.2170    -9.8670   -11.2410 ca         1 WK0      -0.129000
      7 C7          12.5850   -10.1210   -11.2600 ca         1 WK0      -0.121500
      8 C8          13.4250    -9.4760   -10.3600 ca         1 WK0      -0.094500
      9 C10         15.7350    -7.0940    -6.2760 c3         1 WK0       0.212800
     10 C11         13.1660    -9.1090    -6.3660 c          1 WK0       0.709000
     11 C12         14.4080    -6.5540    -9.0170 ca         1 WK0      -0.066300
     12 C13         15.6590    -6.0850    -8.5440 ca         1 WK0       0.309000
     13 N14         16.3540    -6.8400    -7.5930 nh         1 WK0      -0.797400
     14 O15         14.0620    -9.9750    -6.5390 o          1 WK0      -0.729500
     15 O16         12.1400    -9.2450    -5.6490 o          1 WK0      -0.729500
     16 C17         14.2400    -6.8220    -6.1950 c3         1 WK0      -0.062400
     17 C18         15.5120    -4.1950   -10.0720 ca         1 WK0      -0.082000
     18 C19         16.1940    -4.9160    -9.0970 ca         1 WK0      -0.184000
     19 C20         13.7240    -5.8170    -9.9750 ca         1 WK0      -0.071000
     20 C21         14.2750    -4.6500   -10.4890 ca         1 WK0      -0.036900
     21 BR22        13.3010    -3.6650   -11.8240 br         1 WK0      -0.159100
     22 H1          12.3610    -7.2640    -7.0790 hc         1 WK0       0.041700
     23 H2          14.7650    -8.5200    -8.4000 hc         1 WK0       0.102700
     24 H3          11.1300    -7.6250    -8.7050 ha         1 WK0       0.116000
     25 H4           9.6400    -8.7610   -10.2880 ha         1 WK0       0.096000
     26 H5          10.5570   -10.3690   -11.9390 ha         1 WK0       0.092000
     27 H6          12.9980   -10.8240   -11.9740 ha         1 WK0       0.096000
     28 H7          14.4900    -9.6800   -10.3770 ha         1 WK0       0.116000
     29 H8          18.2460    -6.6310    -8.4680 h1         1 WK0       0.024700
     30 H9          18.0530    -5.7120    -6.9560 h1         1 WK0       0.024700
     31 H10         18.2070    -7.4750    -6.9140 h1         1 WK0       0.024700
     32 H11         15.9470    -8.1260    -5.9890 h1         1 WK0       0.041700
     33 H12         16.2270    -6.4430    -5.5410 h1         1 WK0       0.041700
     34 H14         14.0560    -5.7810    -6.4710 hc         1 WK0       0.033700
     35 H15         13.9440    -6.9170    -5.1480 hc         1 WK0       0.033700
     36 H16         15.9420    -3.2910   -10.4820 ha         1 WK0       0.110000
     37 H17         17.1510    -4.5470    -8.7570 ha         1 WK0       0.104000
     38 H18         12.7740    -6.1730   -10.3470 ha         1 WK0       0.134000
     39 C9          17.7870    -6.6420    -7.4800 c3         1 WK0       0.191100
@<TRIPOS>BOND
     1     1     2 1   
     2     1    10 1   
     3     1    16 1   
     4     1    22 1   
     5     2     3 1   
     6     2    11 1   
     7     2    23 1   
     8     3     4 ar  
     9     3     8 ar  
    10     4     5 ar  
    11     4    24 1   
    12     5     6 ar  
    13     5    25 1   
    14     6     7 ar  
    15     6    26 1   
    16     7     8 ar  
    17     7    27 1   
    18     8    28 1   
    19     9    13 1   
    20     9    16 1   
    21     9    32 1   
    22     9    33 1   
    23    10    14 1   
    24    10    15 1   
    25    11    12 ar  
    26    11    19 ar  
    27    12    13 1   
    28    12    18 ar  
    29    13    39 1   
    30    16    34 1   
    31    16    35 1   
    32    17    18 ar  
    33    17    20 ar  
    34    17    36 1   
    35    18    37 1   
    36    19    20 ar  
    37    19    38 1   
    38    20    21 1   
    39    29    39 1   
    40    30    39 1   
    41    31    39 1   
@<TRIPOS>SUBSTRUCTURE
     1 WK0         1 TEMP              0 ****  ****    0 ROOT
