@<TRIPOS>MOLECULE
WK0
   39    41     1     0     0
SMALL
No Charge or Current Charge


@<TRIPOS>ATOM
      1 C1          13.3250    -7.6540    -6.9920 c3         1 WK0      -0.176700
      2 C2          13.8840    -7.8530    -8.4350 c3         1 WK0       0.026900
      3 C3          12.9340    -8.5780    -9.4070 ca         1 WK0      -0.029300
      4 C4          11.5270    -8.4320    -9.3570 ca         1 WK0      -0.094500
      5 C5          10.7060    -9.1020   -10.2800 ca         1 WK0      -0.121500
      6 C6          11.2750    -9.9230   -11.2660 ca         1 WK0      -0.129000
      7 C7          12.6690   -10.0700   -11.3310 ca         1 WK0      -0.121500
      8 C8          13.4920    -9.3990   -10.4100 ca         1 WK0      -0.094500
      9 C10         15.7740    -7.0750    -6.2180 c3         1 WK0       0.212800
     10 C11         12.9900    -9.0090    -6.3240 c          1 WK0       0.709000
     11 C12         14.4300    -6.5340    -9.0060 ca         1 WK0      -0.066300
     12 C13         15.6640    -6.0110    -8.5300 ca         1 WK0       0.309000
     13 N14         16.4030    -6.6550    -7.4990 nh         1 WK0      -0.797400
     14 O15         13.8840    -9.8250    -6.1600 o          1 WK0      -0.729500
     15 O16         11.8360    -9.2020    -5.9700 o          1 WK0      -0.729500
     16 C17         14.2560    -6.7900    -6.0860 c3         1 WK0      -0.062400
     17 C18         15.4620    -4.1310   -10.0850 ca         1 WK0      -0.082000
     18 C19         16.1670    -4.8160    -9.0830 ca         1 WK0      -0.184000
     19 C20         13.7230    -5.8280   -10.0080 ca         1 WK0      -0.071000
     20 C21         14.2390    -4.6380   -10.5410 ca         1 WK0      -0.036900
     21 Br22        13.2680    -3.7040   -11.8970 br         1 WK0      -0.159100
     22 H1          12.3940    -7.0830    -7.0600 hc         1 WK0       0.041700
     23 H2          14.7450    -8.5240    -8.3290 hc         1 WK0       0.102700
     24 H3          11.0570    -7.7930    -8.6160 ha         1 WK0       0.116000
     25 H4           9.6260    -8.9820   -10.2320 ha         1 WK0       0.096000
     26 H5          10.6380   -10.4400   -11.9800 ha         1 WK0       0.092000
     27 H6          13.1140   -10.7010   -12.0970 ha         1 WK0       0.096000
     28 H7          14.5710    -9.5180   -10.4780 ha         1 WK0       0.116000
     29 H8          18.1890    -6.8330    -8.6390 h1         1 WK0       0.024700
     30 H9          18.3620    -5.9250    -7.1120 h1         1 WK0       0.024700
     31 H10         18.2080    -7.7030    -7.0930 h1         1 WK0       0.024700
     32 H11         15.9470    -8.1480    -6.0600 h1         1 WK0       0.041700
     33 H12         16.2770    -6.5470    -5.3960 h1         1 WK0       0.041700
     34 H14         14.0790    -5.7260    -6.2910 hc         1 WK0       0.033700
     35 H15         13.9620    -6.9390    -5.0400 hc         1 WK0       0.033700
     36 H16         15.8600    -3.2070   -10.4980 ha         1 WK0       0.110000
     37 H17         17.1050    -4.4030    -8.7240 ha         1 WK0       0.104000
     38 H18         12.7710    -6.1940   -10.3810 ha         1 WK0       0.134000
     39 C9          17.8710    -6.7840    -7.5890 c3         1 WK0       0.191100
@<TRIPOS>BOND
     1     1     2 1   
     2     1    10 1   
     3     1    16 1   
     4     1    22 1   
     5     2     3 1   
     6     2    11 1   
     7     2    23 1   
     8     3     4 ar  
     9     3     8 ar  
    10     4     5 ar  
    11     4    24 1   
    12     5     6 ar  
    13     5    25 1   
    14     6     7 ar  
    15     6    26 1   
    16     7     8 ar  
    17     7    27 1   
    18     8    28 1   
    19     9    13 1   
    20     9    16 1   
    21     9    32 1   
    22     9    33 1   
    23    10    14 1   
    24    10    15 1   
    25    11    12 ar  
    26    11    19 ar  
    27    12    13 1   
    28    12    18 ar  
    29    13    39 1   
    30    16    34 1   
    31    16    35 1   
    32    17    18 ar  
    33    17    20 ar  
    34    17    36 1   
    35    18    37 1   
    36    19    20 ar  
    37    19    38 1   
    38    20    21 1   
    39    29    39 1   
    40    30    39 1   
    41    31    39 1   
@<TRIPOS>SUBSTRUCTURE
     1 WK0         1 TEMP              0 ****  ****    0 ROOT
