@<TRIPOS>MOLECULE
WK2
   45    48     1     0     0
SMALL
No Charge or Current Charge


@<TRIPOS>ATOM
      1 C32        122.0520   253.3730   358.0250 c3         1 WK2       0.151100
      2 C02        116.0210   243.3380   359.4290 ca         1 WK2       0.618900
      3 C22        119.2630   247.8130   355.9610 ca         1 WK2      -0.079000
      4 C23        120.1620   248.5110   355.1390 ca         1 WK2      -0.130000
      5 C24        120.9280   249.5640   355.6600 ca         1 WK2       0.126100
      6 C26        119.9130   249.2070   357.8380 ca         1 WK2      -0.075000
      7 C28        121.5800   251.6500   354.5900 c3         1 WK2       0.166600
      8 C29        122.2000   252.4780   355.7430 c3         1 WK2       0.129800
      9 C04        115.4300   245.2850   360.7100 ca         1 WK2       0.007700
     10 C05        116.3320   246.0040   359.8860 ca         1 WK2      -0.123000
     11 C21        119.1150   248.1520   357.3270 cp         1 WK2      -0.051000
     12 C11        114.6330   245.9390   361.8330 c3         1 WK2      -0.056800
     13 C10        117.0340   245.3100   358.8620 ca         1 WK2       0.325000
     14 C07        117.4450   248.0780   359.2350 ca         1 WK2      -0.122000
     15 C08        118.1560   247.4130   358.2090 cp         1 WK2      -0.009000
     16 C09        117.9290   246.0250   358.0460 ca         1 WK2      -0.096000
     17 C03        115.2820   243.9110   360.4620 ca         1 WK2      -0.214000
     18 C06        116.5460   247.3880   360.0620 ca         1 WK2      -0.077000
     19 C25        120.8210   249.9140   357.0210 ca         1 WK2      -0.112300
     20 C31        121.7200   250.9740   357.6520 c3         1 WK2       0.212100
     21 N01        116.8700   243.9830   358.6490 nb         1 WK2      -0.761000
     22 N30        121.5710   252.3350   357.0850 n3         1 WK2      -0.708600
     23 O27        121.7660   250.2360   354.8050 os         1 WK2      -0.363100
     24 H1         121.5230   253.3050   358.9850 h1         1 WK2       0.032367
     25 H2         123.1280   253.2620   358.2150 h1         1 WK2       0.032367
     26 H3         121.8770   254.3780   357.6180 h1         1 WK2       0.032367
     27 H4         118.6640   247.0160   355.5280 ha         1 WK2       0.120000
     28 H5         120.2540   248.2450   354.0890 ha         1 WK2       0.126000
     29 H6         119.8420   249.4620   358.8930 ha         1 WK2       0.113000
     30 H7         122.0760   251.9460   353.6580 h1         1 WK2       0.057700
     31 H8         120.5140   251.8920   354.4890 h1         1 WK2       0.057700
     32 H9         123.2700   252.2350   355.8050 h1         1 WK2       0.039700
     33 H10        122.1410   253.5310   355.4340 h1         1 WK2       0.039700
     34 H11        113.9800   246.7300   361.4450 hc         1 WK2       0.048367
     35 H12        113.9940   245.2150   362.3530 hc         1 WK2       0.048367
     36 H13        115.2990   246.3840   362.5820 hc         1 WK2       0.048367
     37 H14        117.5800   249.1460   359.3840 ha         1 WK2       0.116000
     38 H15        118.4700   245.4830   357.2770 ha         1 WK2       0.130000
     39 H16        114.6080   243.3020   361.0560 ha         1 WK2       0.117000
     40 H17        116.0220   247.9460   360.8340 ha         1 WK2       0.110000
     41 H18        122.7650   250.6430   357.5690 h1         1 WK2       0.042200
     42 H19        121.4950   251.0020   358.7270 h1         1 WK2       0.042200
     43 H20        116.7270   241.7350   358.5130 hn         1 WK2       0.477000
     44 H21        115.6680   241.3960   359.8280 hn         1 WK2       0.477000
     45 N02        115.9700   242.0440   359.1090 nv         1 WK2      -1.068900
@<TRIPOS>BOND
     1     1    22 1   
     2     1    24 1   
     3     1    25 1   
     4     1    26 1   
     5     2    17 ar  
     6     2    21 ar  
     7     2    45 1   
     8     3     4 ar  
     9     3    11 ar  
    10     3    27 1   
    11     4     5 ar  
    12     4    28 1   
    13     5    19 ar  
    14     5    23 1   
    15     6    11 ar  
    16     6    19 ar  
    17     6    29 1   
    18     7     8 1   
    19     7    23 1   
    20     7    30 1   
    21     7    31 1   
    22     8    22 1   
    23     8    32 1   
    24     8    33 1   
    25     9    10 ar  
    26     9    12 1   
    27     9    17 ar  
    28    10    13 ar  
    29    10    18 ar  
    30    11    15 1   
    31    12    34 1   
    32    12    35 1   
    33    12    36 1   
    34    13    16 ar  
    35    13    21 ar  
    36    14    15 ar  
    37    14    18 ar  
    38    14    37 1   
    39    15    16 ar  
    40    16    38 1   
    41    17    39 1   
    42    18    40 1   
    43    19    20 1   
    44    20    22 1   
    45    20    41 1   
    46    20    42 1   
    47    43    45 1   
    48    44    45 1   
@<TRIPOS>SUBSTRUCTURE
     1 WK2         1 TEMP              0 ****  ****    0 ROOT
