@<TRIPOS>MOLECULE
WK2
   45    48     1     0     0
SMALL
abcg2


@<TRIPOS>ATOM
      1 C32        122.0260   253.2860   358.0190 c3         1 WK2       0.151100
      2 C02        116.1370   243.3510   359.4100 ca         1 WK2       0.618900
      3 C22        119.2250   247.8500   355.9560 ca         1 WK2      -0.079000
      4 C23        120.1020   248.5480   355.1440 ca         1 WK2      -0.130000
      5 C24        120.8760   249.5770   355.6660 ca         1 WK2       0.126100
      6 C26        119.8740   249.2170   357.8050 ca         1 WK2      -0.075000
      7 C28        121.5750   251.6140   354.6960 c3         1 WK2       0.166600
      8 C29        122.2000   252.4300   355.8060 c3         1 WK2       0.129800
      9 C04        115.4820   245.2950   360.6890 ca         1 WK2       0.007700
     10 C05        116.3700   246.0530   359.8640 ca         1 WK2      -0.123000
     11 C21        119.0880   248.1770   357.3040 cp         1 WK2      -0.051000
     12 C11        114.6940   245.9540   361.7760 c3         1 WK2      -0.056800
     13 C10        117.0780   245.3620   358.8520 ca         1 WK2       0.325000
     14 C07        117.4410   248.1180   359.1940 ca         1 WK2      -0.122000
     15 C08        118.1550   247.4420   358.1800 cp         1 WK2      -0.009000
     16 C09        117.9630   246.0850   358.0260 ca         1 WK2      -0.096000
     17 C03        115.3750   243.9590   360.4540 ca         1 WK2      -0.214000
     18 C06        116.5730   247.4380   360.0100 ca         1 WK2      -0.077000
     19 C25        120.7750   249.9210   357.0150 ca         1 WK2      -0.112300
     20 C31        121.6740   250.9560   357.6380 c3         1 WK2       0.212100
     21 N01        116.9570   244.0290   358.6420 nb         1 WK2      -0.761000
     22 N30        121.5320   252.2940   357.0840 n3         1 WK2      -0.708600
     23 O27        121.7440   250.2070   354.8340 os         1 WK2      -0.363100
     24 H1         121.4800   253.2180   358.9600 h1         1 WK2       0.032367
     25 H2         123.0980   253.1810   358.2440 h1         1 WK2       0.032367
     26 H3         121.8690   254.2870   357.6150 h1         1 WK2       0.032367
     27 H4         118.6190   247.0630   355.5230 ha         1 WK2       0.120000
     28 H5         120.1890   248.2980   354.0940 ha         1 WK2       0.126000
     29 H6         119.8100   249.4720   358.8570 ha         1 WK2       0.113000
     30 H7         122.0620   251.8780   353.7570 h1         1 WK2       0.057700
     31 H8         120.5120   251.8570   354.6040 h1         1 WK2       0.057700
     32 H9         123.2750   252.1870   355.8770 h1         1 WK2       0.039700
     33 H10        122.1360   253.4750   355.4920 h1         1 WK2       0.039700
     34 H11        114.0530   246.7410   361.3760 hc         1 WK2       0.048367
     35 H12        114.0620   245.2360   362.2940 hc         1 WK2       0.048367
     36 H13        115.3500   246.4220   362.5130 hc         1 WK2       0.048367
     37 H14        117.5590   249.1870   359.3160 ha         1 WK2       0.116000
     38 H15        118.5110   245.5310   357.2740 ha         1 WK2       0.130000
     39 H16        114.7140   243.3450   361.0540 ha         1 WK2       0.117000
     40 H17        116.0320   247.9830   360.7720 ha         1 WK2       0.110000
     41 H18        122.7210   250.6090   357.5770 h1         1 WK2       0.042200
     42 H19        121.4340   251.0060   358.7020 h1         1 WK2       0.042200
     43 H20        116.6690   241.5760   358.5890 hn         1 WK2       0.477000
     44 H21        115.5840   241.4440   359.8910 hn         1 WK2       0.477000
     45 N02        115.9810   242.0240   359.1710 nv         1 WK2      -1.068900
@<TRIPOS>BOND
     1     1    22 1   
     2     1    24 1   
     3     1    25 1   
     4     1    26 1   
     5     2    17 ar  
     6     2    21 ar  
     7     2    45 1   
     8     3     4 ar  
     9     3    11 ar  
    10     3    27 1   
    11     4     5 ar  
    12     4    28 1   
    13     5    19 ar  
    14     5    23 1   
    15     6    11 ar  
    16     6    19 ar  
    17     6    29 1   
    18     7     8 1   
    19     7    23 1   
    20     7    30 1   
    21     7    31 1   
    22     8    22 1   
    23     8    32 1   
    24     8    33 1   
    25     9    10 ar  
    26     9    12 1   
    27     9    17 ar  
    28    10    13 ar  
    29    10    18 ar  
    30    11    15 1   
    31    12    34 1   
    32    12    35 1   
    33    12    36 1   
    34    13    16 ar  
    35    13    21 ar  
    36    14    15 ar  
    37    14    18 ar  
    38    14    37 1   
    39    15    16 ar  
    40    16    38 1   
    41    17    39 1   
    42    18    40 1   
    43    19    20 1   
    44    20    22 1   
    45    20    41 1   
    46    20    42 1   
    47    43    45 1   
    48    44    45 1   
@<TRIPOS>SUBSTRUCTURE
     1 WK2         1 TEMP              0 ****  ****    0 ROOT
