@<TRIPOS>MOLECULE
WK3
   53    54     1     0     0
SMALL
abcg2


@<TRIPOS>ATOM
      1 C1         128.9080   113.2230   169.5820 c3         1 WK3      -0.119100
      2 C2         129.2010   113.9130   170.8990 c3         1 WK3       0.103100
      3 C4         131.5760   114.4230   170.3050 c3         1 WK3      -0.002400
      4 C5         132.0880   113.1600   170.9900 c          1 WK3       0.593100
      5 C7         133.5600   111.2380   170.6110 ca         1 WK3      -0.080000
      6 C8         134.5690   111.3000   171.5780 ca         1 WK3      -0.064300
      7 C9         134.9860   112.5990   172.2080 c3         1 WK3      -0.048300
      8 C10        135.1940   110.1070   171.9430 ca         1 WK3      -0.097000
      9 C11        134.8360   108.9020   171.3560 ca         1 WK3      -0.082000
     10 C12        133.8420   108.8680   170.3850 ca         1 WK3      -0.097000
     11 C13        133.1850   110.0350   169.9990 ca         1 WK3      -0.064300
     12 C14        132.1020   110.0060   168.9560 c3         1 WK3      -0.048300
     13 C16        129.9010   116.1040   169.8770 c3         1 WK3       0.103100
     14 C17        128.5420   116.7290   170.1130 c3         1 WK3      -0.119100
     15 C18        130.4440   115.5290   172.2680 c3         1 WK3       0.171900
     16 C19        131.5630   116.5100   172.4590 ca         1 WK3      -0.170300
     17 C20        131.3620   117.8820   172.2870 ca         1 WK3      -0.086500
     18 C21        132.4030   118.7790   172.4960 ca         1 WK3      -0.103500
     19 C22        133.6560   118.3170   172.8850 ca         1 WK3      -0.063000
     20 C23        133.8620   116.9540   173.0760 ca         1 WK3      -0.103500
     21 C24        132.8200   116.0590   172.8690 ca         1 WK3      -0.086500
     22 N3         130.2860   114.9810   170.8350 n4         1 WK3      -0.514000
     23 N6         132.8950   112.4310   170.1950 ns         1 WK3      -0.133000
     24 O15        131.8340   112.8720   172.1530 o          1 WK3      -0.580100
     25 HC1A       128.1070   112.5070   169.7680 hc         1 WK3       0.070033
     26 HC1C       128.5640   113.9120   168.8120 hc         1 WK3       0.070033
     27 HC1B       129.7630   112.6660   169.2020 hc         1 WK3       0.070033
     28 HC2A       128.3180   114.4150   171.2840 hx         1 WK3       0.094700
     29 HC2B       129.5360   113.2010   171.6450 hx         1 WK3       0.094700
     30 HC4B       131.4370   114.2430   169.2430 hx         1 WK3       0.104200
     31 HC4A       132.3320   115.2000   170.4060 hx         1 WK3       0.104200
     32 HC9A       134.2730   112.9050   172.9770 hc         1 WK3       0.045367
     33 HC9C       135.9660   112.5000   172.6730 hc         1 WK3       0.045367
     34 HC9B       135.0280   113.4040   171.4730 hc         1 WK3       0.045367
     35 HC10       135.9800   110.1340   172.6890 ha         1 WK3       0.128000
     36 HC11       135.3350   107.9870   171.6490 ha         1 WK3       0.131000
     37 HC12       133.5630   107.9280   169.9240 ha         1 WK3       0.128000
     38 H14B       132.3940   110.5660   168.0630 hc         1 WK3       0.045367
     39 H14A       131.8880   108.9820   168.6550 hc         1 WK3       0.045367
     40 H14C       131.1820   110.4600   169.3290 hc         1 WK3       0.045367
     41 H16A       129.9500   115.6780   168.8780 hx         1 WK3       0.094700
     42 H16B       130.6960   116.8400   169.9600 hx         1 WK3       0.094700
     43 H17C       128.4520   117.5630   169.4150 hc         1 WK3       0.070033
     44 H17B       127.7260   116.0380   169.9080 hc         1 WK3       0.070033
     45 H17A       128.4200   117.1290   171.1180 hc         1 WK3       0.070033
     46 H18A       129.4840   115.9720   172.5100 hx         1 WK3       0.104200
     47 H18B       130.5960   114.6530   172.8860 hx         1 WK3       0.104200
     48 HC20       130.3870   118.2550   172.0030 ha         1 WK3       0.123000
     49 HC21       132.2320   119.8390   172.3620 ha         1 WK3       0.136000
     50 HC22       134.4660   119.0160   173.0480 ha         1 WK3       0.138000
     51 HC23       134.8300   116.5880   173.3930 ha         1 WK3       0.136000
     52 HC24       132.9770   115.0010   173.0340 ha         1 WK3       0.123000
     53 HN6        132.9340   112.6650   169.2130 hn         1 WK3       0.159000
@<TRIPOS>BOND
     1     1     2 1   
     2     1    25 1   
     3     1    26 1   
     4     1    27 1   
     5     2    22 1   
     6     2    28 1   
     7     2    29 1   
     8     3     4 1   
     9     3    22 1   
    10     3    30 1   
    11     3    31 1   
    12     4    23 1   
    13     4    24 2   
    14     5     6 ar  
    15     5    11 ar  
    16     5    23 1   
    17     6     7 1   
    18     6     8 ar  
    19     7    32 1   
    20     7    33 1   
    21     7    34 1   
    22     8     9 ar  
    23     8    35 1   
    24     9    10 ar  
    25     9    36 1   
    26    10    11 ar  
    27    10    37 1   
    28    11    12 1   
    29    12    38 1   
    30    12    39 1   
    31    12    40 1   
    32    13    14 1   
    33    13    22 1   
    34    13    41 1   
    35    13    42 1   
    36    14    43 1   
    37    14    44 1   
    38    14    45 1   
    39    15    16 1   
    40    15    22 1   
    41    15    46 1   
    42    15    47 1   
    43    16    17 ar  
    44    16    21 ar  
    45    17    18 ar  
    46    17    48 1   
    47    18    19 ar  
    48    18    49 1   
    49    19    20 ar  
    50    19    50 1   
    51    20    21 ar  
    52    20    51 1   
    53    21    52 1   
    54    23    53 1   
@<TRIPOS>SUBSTRUCTURE
     1 WK3         1 TEMP              0 ****  ****    0 ROOT
