@<TRIPOS>MOLECULE
WK3
   53    54     1     0     0
SMALL
No Charge or Current Charge


@<TRIPOS>ATOM
      1 C1         128.4900   113.2660   169.7710 c3         1 WK3      -0.119100
      2 C2         128.9330   114.0210   171.0400 c3         1 WK3       0.103100
      3 C4         131.3590   114.3210   170.3490 c3         1 WK3      -0.002400
      4 C5         131.9310   113.0800   171.0700 c          1 WK3       0.593100
      5 C7         133.6290   111.2360   170.6560 ca         1 WK3      -0.080000
      6 C8         134.5120   111.2360   171.7680 ca         1 WK3      -0.064300
      7 C9         134.7280   112.4710   172.6410 c3         1 WK3      -0.048300
      8 C10        135.2480   110.0720   172.0640 ca         1 WK3      -0.097000
      9 C11        135.1280   108.9270   171.2630 ca         1 WK3      -0.082000
     10 C12        134.2760   108.9370   170.1500 ca         1 WK3      -0.097000
     11 C13        133.5270   110.0870   169.8360 ca         1 WK3      -0.064300
     12 C14        132.6000   110.0670   168.6230 c3         1 WK3      -0.048300
     13 C16        129.6980   116.1550   169.9110 c3         1 WK3       0.103100
     14 C17        128.4050   116.9470   170.1970 c3         1 WK3      -0.119100
     15 C18        130.3860   115.6330   172.2910 c3         1 WK3       0.171900
     16 C19        131.6260   116.5160   172.3870 ca         1 WK3      -0.170300
     17 C20        131.5790   117.8730   172.0110 ca         1 WK3      -0.086500
     18 C21        132.7320   118.6730   172.0980 ca         1 WK3      -0.103500
     19 C22        133.9370   118.1240   172.5700 ca         1 WK3      -0.063000
     20 C23        133.9850   116.7760   172.9630 ca         1 WK3      -0.103500
     21 C24        132.8320   115.9770   172.8760 ca         1 WK3      -0.086500
     22 N3         130.0880   115.0360   170.8980 n4         1 WK3      -0.514000
     23 N6         132.8610   112.3830   170.3170 ns         1 WK3      -0.133000
     24 O15        131.5800   112.7340   172.1940 o          1 WK3      -0.580100
     25 HC1A       127.6570   112.5940   170.0090 hc         1 WK3       0.070033
     26 HC1C       128.1520   113.9620   168.9960 hc         1 WK3       0.070033
     27 HC1B       129.3070   112.6600   169.3660 hc         1 WK3       0.070033
     28 HC2A       128.0720   114.5600   171.4410 hx         1 WK3       0.094700
     29 HC2B       129.2330   113.2860   171.7900 hx         1 WK3       0.094700
     30 HC4B       131.1450   114.0070   169.3260 hx         1 WK3       0.104200
     31 HC4A       132.1660   115.0550   170.3160 hx         1 WK3       0.104200
     32 HC9A       133.9730   112.5310   173.4330 hc         1 WK3       0.045367
     33 HC9C       135.7100   112.4490   173.1280 hc         1 WK3       0.045367
     34 HC9B       134.6870   113.3970   172.0560 hc         1 WK3       0.045367
     35 HC10       135.9250   110.0570   172.9160 ha         1 WK3       0.128000
     36 HC11       135.7040   108.0350   171.5000 ha         1 WK3       0.131000
     37 HC12       134.1970   108.0450   169.5320 ha         1 WK3       0.128000
     38 H14B       132.8970   110.8240   167.8880 hc         1 WK3       0.045367
     39 H14A       132.6140   109.0950   168.1150 hc         1 WK3       0.045367
     40 H14C       131.5630   110.2670   168.9160 hc         1 WK3       0.045367
     41 H16A       129.6070   115.7000   168.9220 hx         1 WK3       0.094700
     42 H16B       130.5350   116.8560   169.8700 hx         1 WK3       0.094700
     43 H17C       128.2770   117.7340   169.4450 hc         1 WK3       0.070033
     44 H17B       127.5270   116.2940   170.1530 hc         1 WK3       0.070033
     45 H17A       128.4370   117.4210   171.1830 hc         1 WK3       0.070033
     46 H18A       129.5040   116.1940   172.6090 hx         1 WK3       0.104200
     47 H18B       130.4940   114.7940   172.9830 hx         1 WK3       0.104200
     48 HC20       130.6530   118.3140   171.6520 ha         1 WK3       0.123000
     49 HC21       132.6910   119.7190   171.8020 ha         1 WK3       0.136000
     50 HC22       134.8280   118.7440   172.6380 ha         1 WK3       0.138000
     51 HC23       134.9140   116.3520   173.3380 ha         1 WK3       0.136000
     52 HC24       132.8780   114.9380   173.1950 ha         1 WK3       0.123000
     53 HN6        133.0160   112.7360   169.3820 hn         1 WK3       0.159000
@<TRIPOS>BOND
     1     1     2 1   
     2     1    25 1   
     3     1    26 1   
     4     1    27 1   
     5     2    22 1   
     6     2    28 1   
     7     2    29 1   
     8     3     4 1   
     9     3    22 1   
    10     3    30 1   
    11     3    31 1   
    12     4    23 1   
    13     4    24 2   
    14     5     6 ar  
    15     5    11 ar  
    16     5    23 1   
    17     6     7 1   
    18     6     8 ar  
    19     7    32 1   
    20     7    33 1   
    21     7    34 1   
    22     8     9 ar  
    23     8    35 1   
    24     9    10 ar  
    25     9    36 1   
    26    10    11 ar  
    27    10    37 1   
    28    11    12 1   
    29    12    38 1   
    30    12    39 1   
    31    12    40 1   
    32    13    14 1   
    33    13    22 1   
    34    13    41 1   
    35    13    42 1   
    36    14    43 1   
    37    14    44 1   
    38    14    45 1   
    39    15    16 1   
    40    15    22 1   
    41    15    46 1   
    42    15    47 1   
    43    16    17 ar  
    44    16    21 ar  
    45    17    18 ar  
    46    17    48 1   
    47    18    19 ar  
    48    18    49 1   
    49    19    20 ar  
    50    19    50 1   
    51    20    21 ar  
    52    20    51 1   
    53    21    52 1   
    54    23    53 1   
@<TRIPOS>SUBSTRUCTURE
     1 WK3         1 TEMP              0 ****  ****    0 ROOT
