@<TRIPOS>MOLECULE
WK4
   26    26     1     0     0
SMALL
bcc


@<TRIPOS>ATOM
      1 C10        -32.5560    -7.6130   -20.9650 cc         1 WK4      -0.268600
      2 N12        -31.7210    -5.8430   -19.8730 nd         1 WK4      -0.677000
      3 C13        -31.0450    -6.9160   -19.5530 cc         1 WK4       0.394400
      4 C01        -26.0590    -7.2500   -20.3140 c3         1 WK4       0.097800
      5 C03        -27.7250    -6.4340   -21.9570 c3         1 WK4       0.097800
      6 C04        -28.0210    -8.5780   -20.8140 c          1 WK4       0.753100
      7 C07        -30.0780    -9.6200   -21.3560 c3         1 WK4       0.139400
      8 C11        -32.6700    -6.2680   -20.7590 cd         1 WK4       0.296200
      9 N02        -27.2910    -7.4720   -21.0400 n          1 WK4      -0.467800
     10 N09        -31.5150    -8.0170   -20.1760 na         1 WK4      -0.185900
     11 O05        -27.7450    -9.4650   -20.0280 o          1 WK4      -0.601000
     12 O06        -29.1210    -8.5950   -21.5840 os         1 WK4      -0.422900
     13 H1         -33.1130    -8.2990   -21.5820 h4         1 WK4       0.171000
     14 H2         -30.2160    -6.9630   -18.8620 h5         1 WK4       0.054100
     15 H3         -25.8520    -8.0870   -19.6540 h1         1 WK4       0.046200
     16 H4         -25.2210    -7.1390   -21.0040 h1         1 WK4       0.046200
     17 H5         -26.1270    -6.3450   -19.7090 h1         1 WK4       0.046200
     18 H6         -26.9700    -5.6530   -21.9710 h1         1 WK4       0.046200
     19 H7         -27.8360    -6.8050   -22.9760 h1         1 WK4       0.046200
     20 H8         -28.6680    -5.9800   -21.6470 h1         1 WK4       0.046200
     21 H9         -30.6990    -9.6300   -22.2510 h1         1 WK4       0.072200
     22 H10        -29.6100   -10.6010   -21.2590 h1         1 WK4       0.072200
     23 H11        -31.7150   -10.0860   -20.0680 h1         1 WK4       0.076700
     24 H12        -30.3340    -9.4100   -19.2170 h1         1 WK4       0.076700
     25 H13        -33.3880    -5.5910   -21.1960 h4         1 WK4       0.036100
     26 C08        -30.9260    -9.3360   -20.1290 c3         1 WK4       0.007300
@<TRIPOS>BOND
     1     1     8 2   
     2     1    10 1   
     3     1    13 1   
     4     2     3 2   
     5     2     8 1   
     6     3    10 1   
     7     3    14 1   
     8     4     9 1   
     9     4    15 1   
    10     4    16 1   
    11     4    17 1   
    12     5     9 1   
    13     5    18 1   
    14     5    19 1   
    15     5    20 1   
    16     6     9 1   
    17     6    11 2   
    18     6    12 1   
    19     7    12 1   
    20     7    21 1   
    21     7    22 1   
    22     7    26 1   
    23     8    25 1   
    24    10    26 1   
    25    23    26 1   
    26    24    26 1   
@<TRIPOS>SUBSTRUCTURE
     1 WK4         1 TEMP              0 ****  ****    0 ROOT
