@<TRIPOS>MOLECULE
WK4
   26    26     1     0     0
SMALL
No Charge or Current Charge


@<TRIPOS>ATOM
      1 C10        -32.8800    -7.6710   -20.6930 cc         1 WK4      -0.236000
      2 N12        -31.8650    -5.7210   -20.1620 nd         1 WK4      -0.677000
      3 C13        -31.0100    -6.7160   -19.9640 cc         1 WK4       0.394400
      4 C01        -25.9420    -7.2920   -20.1600 c3         1 WK4       0.097800
      5 C03        -27.4440    -6.5100   -22.0560 c3         1 WK4       0.097800
      6 C04        -27.9950    -8.5920   -20.7450 c          1 WK4       0.637100
      7 C07        -30.0920    -9.6140   -21.4170 c3         1 WK4       0.162600
      8 C11        -33.0270    -6.3100   -20.6160 cd         1 WK4       0.230900
      9 N02        -27.1480    -7.4960   -20.9900 n          1 WK4      -0.400800
     10 N09        -31.5930    -7.9290   -20.2750 na         1 WK4      -0.164500
     11 O05        -27.7960    -9.4110   -19.8610 o          1 WK4      -0.552000
     12 O06        -29.0620    -8.6180   -21.6040 os         1 WK4      -0.446100
     13 H1         -33.5760    -8.4410   -21.0040 h4         1 WK4       0.153000
     14 H2         -29.9900    -6.6320   -19.6080 h5         1 WK4       0.054100
     15 H3         -25.3570    -8.2200   -20.1200 h1         1 WK4       0.046200
     16 H4         -25.3100    -6.4970   -20.5760 h1         1 WK4       0.046200
     17 H5         -26.2400    -7.0130   -19.1410 h1         1 WK4       0.046200
     18 H6         -26.6950    -5.7080   -22.0650 h1         1 WK4       0.046200
     19 H7         -27.4380    -7.0090   -23.0330 h1         1 WK4       0.046200
     20 H8         -28.4320    -6.0640   -21.8850 h1         1 WK4       0.046200
     21 H9         -30.7470    -9.6440   -22.2970 h1         1 WK4       0.072200
     22 H10        -29.6590   -10.6160   -21.2930 h1         1 WK4       0.072200
     23 H11        -31.7350   -10.0120   -20.0650 h1         1 WK4       0.076700
     24 H12        -30.3350    -9.2850   -19.2740 h1         1 WK4       0.076700
     25 H13        -33.9040    -5.7230   -20.8610 h4         1 WK4       0.036100
     26 C08        -30.9510    -9.2530   -20.1800 c3         1 WK4       0.036600
@<TRIPOS>BOND
     1     1     8 2   
     2     1    10 1   
     3     1    13 1   
     4     2     3 2   
     5     2     8 1   
     6     3    10 1   
     7     3    14 1   
     8     4     9 1   
     9     4    15 1   
    10     4    16 1   
    11     4    17 1   
    12     5     9 1   
    13     5    18 1   
    14     5    19 1   
    15     5    20 1   
    16     6     9 1   
    17     6    11 2   
    18     6    12 1   
    19     7    12 1   
    20     7    21 1   
    21     7    22 1   
    22     7    26 1   
    23     8    25 1   
    24    10    26 1   
    25    23    26 1   
    26    24    26 1   
@<TRIPOS>SUBSTRUCTURE
     1 WK4         1 TEMP              0 ****  ****    0 ROOT
