@<TRIPOS>MOLECULE
WK7
   27    28     1     0     0
SMALL
No Charge or Current Charge


@<TRIPOS>ATOM
      1 C15        -30.3230    -9.2570   -20.3690 c6         1 WK7       0.180300
      2 C02        -26.7170    -8.1380   -19.9550 ca         1 WK7       0.101000
      3 C03        -25.5000    -8.1140   -20.6590 ca         1 WK7      -0.076000
      4 C04        -25.4860    -8.2760   -22.0560 ca         1 WK7      -0.047000
      5 C05        -24.2420    -8.2500   -22.7760 cg         1 WK7       0.330000
      6 C07        -26.6980    -8.4610   -22.7450 ca         1 WK7      -0.044000
      7 C08        -27.9160    -8.4870   -22.0410 ca         1 WK7      -0.180000
      8 C09        -27.9480    -8.3300   -20.6400 ca         1 WK7       0.318000
      9 C11        -29.5820    -7.2600   -19.0000 c6         1 WK7       0.180300
     10 C12        -31.1330    -7.0820   -18.8510 c6         1 WK7       0.127300
     11 C14        -31.6000    -8.4750   -20.8480 c6         1 WK7       0.127300
     12 N06        -23.2260    -8.2270   -23.3520 n1         1 WK7      -0.455000
     13 N10        -29.1990    -8.3530   -19.9590 nh         1 WK7      -0.815400
     14 N13        -31.8340    -7.1590   -20.1660 n7         1 WK7      -0.847400
     15 H1         -30.6050    -9.8790   -19.5060 h1         1 WK7       0.060450
     16 H2         -30.0120    -9.9640   -21.1530 h1         1 WK7       0.060450
     17 H3         -24.5700    -7.9710   -20.1120 ha         1 WK7       0.141000
     18 H4         -26.7010    -8.5810   -23.8270 ha         1 WK7       0.127000
     19 H5         -28.8400    -8.6130   -22.5970 ha         1 WK7       0.120000
     20 H6         -29.1530    -7.4490   -18.0050 h1         1 WK7       0.060450
     21 H7         -29.1640    -6.3050   -19.3540 h1         1 WK7       0.060450
     22 H8         -31.3400    -6.1150   -18.3700 h1         1 WK7       0.058700
     23 H9         -31.5230    -7.8660   -18.1840 h1         1 WK7       0.058700
     24 H10        -31.5280    -8.3020   -21.9320 h1         1 WK7       0.058700
     25 H11        -32.4730    -9.1260   -20.6910 h1         1 WK7       0.058700
     26 H12        -31.4110    -6.4340   -20.7610 hn         1 WK7       0.414000
     27 F01        -26.6800    -7.9940   -18.6070 f          1 WK7      -0.178000
@<TRIPOS>BOND
     1     1    11 1   
     2     1    13 1   
     3     1    15 1   
     4     1    16 1   
     5     2     3 ar  
     6     2     8 ar  
     7     2    27 1   
     8     3     4 ar  
     9     3    17 1   
    10     4     5 1   
    11     4     6 ar  
    12     5    12 3   
    13     6     7 ar  
    14     6    18 1   
    15     7     8 ar  
    16     7    19 1   
    17     8    13 1   
    18     9    10 1   
    19     9    13 1   
    20     9    20 1   
    21     9    21 1   
    22    10    14 1   
    23    10    22 1   
    24    10    23 1   
    25    11    14 1   
    26    11    24 1   
    27    11    25 1   
    28    14    26 1   
@<TRIPOS>SUBSTRUCTURE
     1 WK7         1 TEMP              0 ****  ****    0 ROOT
