@<TRIPOS>MOLECULE
WK7
   27    28     1     0     0
SMALL
bcc


@<TRIPOS>ATOM
      1 C15        -30.3320    -9.2610   -20.2910 c6         1 WK7       0.180300
      2 C02        -26.8290    -8.0120   -19.9950 ca         1 WK7       0.065900
      3 C03        -25.6730    -7.8840   -20.7190 ca         1 WK7      -0.094000
      4 C04        -25.6840    -8.1820   -22.0840 ca         1 WK7      -0.047000
      5 C05        -24.4930    -8.0640   -22.8510 cg         1 WK7       0.240800
      6 C07        -26.8700    -8.6100   -22.6780 ca         1 WK7      -0.062000
      7 C08        -28.0250    -8.7120   -21.9320 ca         1 WK7      -0.198000
      8 C09        -28.0600    -8.4030   -20.5590 ca         1 WK7       0.179600
      9 C11        -29.5410    -7.5210   -18.7900 c6         1 WK7       0.180300
     10 C12        -31.0060    -7.0870   -18.9800 c6         1 WK7       0.127300
     11 C14        -31.3320    -8.3370   -21.0030 c6         1 WK7       0.127300
     12 N06        -23.5280    -7.9700   -23.4760 n1         1 WK7      -0.365800
     13 N10        -29.1880    -8.5200   -19.8010 nh         1 WK7      -0.677000
     14 N13        -31.3920    -7.0210   -20.3750 n7         1 WK7      -0.792200
     15 H1         -30.8090    -9.7290   -19.4260 h1         1 WK7       0.060450
     16 H2         -30.0140   -10.0820   -20.9310 h1         1 WK7       0.060450
     17 H3         -24.7600    -7.5860   -20.2200 ha         1 WK7       0.159000
     18 H4         -26.8960    -8.8450   -23.7340 ha         1 WK7       0.145000
     19 H5         -28.9300    -9.0160   -22.4360 ha         1 WK7       0.138000
     20 H6         -29.3870    -7.8980   -17.7740 h1         1 WK7       0.060450
     21 H7         -28.9100    -6.6420   -18.9170 h1         1 WK7       0.060450
     22 H8         -31.1430    -6.1120   -18.5110 h1         1 WK7       0.058700
     23 H9         -31.6830    -7.7710   -18.4630 h1         1 WK7       0.058700
     24 H10        -31.0620    -8.2090   -22.0520 h1         1 WK7       0.058700
     25 H11        -32.3180    -8.8140   -20.9880 h1         1 WK7       0.058700
     26 H12        -30.7750    -6.3830   -20.8610 hn         1 WK7       0.358800
     27 F01        -26.7640    -7.7980   -18.6700 f          1 WK7      -0.142900
@<TRIPOS>BOND
     1     1    11 1   
     2     1    13 1   
     3     1    15 1   
     4     1    16 1   
     5     2     3 ar  
     6     2     8 ar  
     7     2    27 1   
     8     3     4 ar  
     9     3    17 1   
    10     4     5 1   
    11     4     6 ar  
    12     5    12 3   
    13     6     7 ar  
    14     6    18 1   
    15     7     8 ar  
    16     7    19 1   
    17     8    13 1   
    18     9    10 1   
    19     9    13 1   
    20     9    20 1   
    21     9    21 1   
    22    10    14 1   
    23    10    22 1   
    24    10    23 1   
    25    11    14 1   
    26    11    24 1   
    27    11    25 1   
    28    14    26 1   
@<TRIPOS>SUBSTRUCTURE
     1 WK7         1 TEMP              0 ****  ****    0 ROOT
