@<TRIPOS>MOLECULE
WK9
   50    52     1     0     0
SMALL
No Charge or Current Charge


@<TRIPOS>ATOM
      1 C1           4.0610     8.1340    20.9460 ce         1 WK9      -0.220200
      2 C2           3.9240     8.3300    19.4860 ce         1 WK9      -0.320400
      3 C3           2.8820     7.8270    21.5860 cf         1 WK9       0.118800
      4 N4           5.0010     8.1680    18.5670 ns         1 WK9      -0.360100
      5 C5           5.0390     8.0890    17.1750 c          1 WK9       0.631100
      6 S6           2.2620     8.5650    18.9730 s4         1 WK9      -0.073300
      7 C7           1.6980     7.7900    20.5720 c5         1 WK9       0.174100
      8 C8           2.6180     7.4680    22.9860 cf         1 WK9      -0.646200
      9 C9           5.4120     8.2750    21.6310 c          1 WK9       0.629300
     10 C10          6.4260     7.9230    16.4810 c6         1 WK9      -0.121700
     11 C11          7.2510     6.6460    16.8900 c6         1 WK9      -0.181700
     12 C12          6.4660     5.3240    16.6790 c          1 WK9       0.718000
     13 S13          1.0130     7.7040    23.7000 s4         1 WK9       0.080700
     14 O14          4.0280     8.1490    16.4830 o          1 WK9      -0.598100
     15 C15          3.3940     6.2950    23.6220 c5         1 WK9       0.023800
     16 C16          1.1780     6.1150    24.6820 c5         1 WK9       0.141900
     17 O17          6.4690     8.3730    21.0200 o          1 WK9      -0.537000
     18 O18          5.5140     5.0890    17.4060 o          1 WK9      -0.726500
     19 C19          2.2800     5.2660    23.9750 c5         1 WK9      -0.090400
     20 C20          8.7810     8.0110    18.4240 c6         1 WK9      -0.073400
     21 C21          8.0000     9.2950    18.0550 c6         1 WK9      -0.071400
     22 O22          6.8570     4.5580    15.8100 o          1 WK9      -0.726500
     23 O23          5.3300     8.4550    22.9870 os         1 WK9      -0.448100
     24 C24          7.3360     9.1800    16.6610 c6         1 WK9      -0.068400
     25 C25          7.9050     6.7410    18.2970 c6         1 WK9      -0.060400
     26 C26          6.5470     8.6620    23.7230 c3         1 WK9       0.158900
     27 H27          5.9060     8.0770    19.0180 hn         1 WK9       0.324500
     28 H1           1.3990     6.7570    20.3540 h1         1 WK9       0.074200
     29 H28          0.8210     8.3480    20.9190 h1         1 WK9       0.074200
     30 H29          6.2010     7.8390    15.4090 hc         1 WK9       0.077700
     31 H30          8.0840     6.6010    16.1730 hc         1 WK9       0.027700
     32 H2           4.1320     5.8560    22.9380 hc         1 WK9       0.062700
     33 H31          3.9420     6.6140    24.5180 hc         1 WK9       0.062700
     34 H32          1.4650     6.3850    25.7060 h1         1 WK9       0.076700
     35 H3           0.2030     5.6120    24.7080 h1         1 WK9       0.076700
     36 H4           1.8830     4.8030    23.0640 hc         1 WK9       0.062700
     37 H33          2.6480     4.4550    24.6130 hc         1 WK9       0.062700
     38 H5           9.6560     7.9170    17.7670 hc         1 WK9       0.017200
     39 H34          9.1710     8.0940    19.4480 hc         1 WK9       0.017200
     40 H35          7.2470     9.5210    18.8170 hc         1 WK9       0.024200
     41 H6           8.6890    10.1500    18.0590 hc         1 WK9       0.024200
     42 H38          8.1270     9.1550    15.8990 hc         1 WK9       0.022700
     43 H37          6.7540    10.0880    16.4550 hc         1 WK9       0.022700
     44 H39          7.1450     6.7130    19.0850 hc         1 WK9       0.049200
     45 H40          8.5340     5.8560    18.4650 hc         1 WK9       0.049200
     46 H43          6.3300     8.7800    24.7920 h1         1 WK9       0.032033
     47 H42          7.2250     7.8070    23.6050 h1         1 WK9       0.032033
     48 H41          7.0630     9.5680    23.3780 h1         1 WK9       0.032033
     49 H7           2.1530     9.7030    19.7710 hs         1 WK9       0.095000
     50 H8           1.5430     8.2610    24.8700 hs         1 WK9       0.250000
@<TRIPOS>BOND
     1     1     2 1   
     2     1     3 2   
     3     1     9 1   
     4     2     4 1   
     5     2     6 2   
     6     3     7 1   
     7     3     8 1   
     8     4     5 1   
     9     4    27 1   
    10     5    10 1   
    11     5    14 2   
    12     6     7 1   
    13     6    49 1   
    14     7    28 1   
    15     7    29 1   
    16     8    13 2   
    17     8    15 1   
    18     9    17 2   
    19     9    23 1   
    20    10    11 1   
    21    10    24 1   
    22    10    30 1   
    23    11    12 1   
    24    11    25 1   
    25    11    31 1   
    26    12    18 1   
    27    12    22 1   
    28    13    16 1   
    29    13    50 1   
    30    15    19 1   
    31    15    32 1   
    32    15    33 1   
    33    16    19 1   
    34    16    34 1   
    35    16    35 1   
    36    19    36 1   
    37    19    37 1   
    38    20    21 1   
    39    20    25 1   
    40    20    38 1   
    41    20    39 1   
    42    21    24 1   
    43    21    40 1   
    44    21    41 1   
    45    23    26 1   
    46    24    42 1   
    47    24    43 1   
    48    25    44 1   
    49    25    45 1   
    50    26    46 1   
    51    26    47 1   
    52    26    48 1   
@<TRIPOS>SUBSTRUCTURE
     1 WK9         1 TEMP              0 ****  ****    0 ROOT
