@<TRIPOS>MOLECULE
WK9
   50    52     1     0     0
SMALL
abcg2


@<TRIPOS>ATOM
      1 C1           4.1680     7.9840    21.0280 ce         1 WK9      -0.220200
      2 C2           4.0100     8.1480    19.5710 ce         1 WK9      -0.320400
      3 C3           2.9130     7.8600    21.6510 cf         1 WK9       0.118800
      4 N4           5.0940     8.2000    18.6890 ns         1 WK9      -0.360100
      5 C5           5.0530     7.7140    17.4270 c          1 WK9       0.631100
      6 S6           2.5990     9.0960    19.2890 s4         1 WK9      -0.073300
      7 C7           1.7920     8.2770    20.6940 c5         1 WK9       0.174100
      8 C8           2.5890     7.3180    22.8740 cf         1 WK9      -0.646200
      9 C9           5.4100     8.2440    21.6870 c          1 WK9       0.629300
     10 C10          6.3480     7.7120    16.6250 c6         1 WK9      -0.121700
     11 C11          7.3170     6.5810    17.0450 c6         1 WK9      -0.181700
     12 C12          6.5530     5.2430    17.1570 c          1 WK9       0.718000
     13 S13          0.9700     7.4860    23.4940 s4         1 WK9       0.080700
     14 O14          4.0130     7.3070    16.9250 o          1 WK9      -0.598100
     15 C15          3.3050     6.3090    23.7200 c5         1 WK9       0.023800
     16 C16          0.9340     5.8390    24.3230 c5         1 WK9       0.141900
     17 O17          6.4420     8.6050    21.1220 o          1 WK9      -0.537000
     18 O18          6.2000     4.8790    18.2970 o          1 WK9      -0.726500
     19 C19          2.2790     5.2000    23.9840 c5         1 WK9      -0.090400
     20 C20          8.9210     8.2380    18.0510 c6         1 WK9      -0.073400
     21 C21          7.9940     9.4000    17.7120 c6         1 WK9      -0.071400
     22 O22          6.3230     4.6470    16.0840 o          1 WK9      -0.726500
     23 O23          5.3840     8.1180    23.0260 os         1 WK9      -0.448100
     24 C24          7.0750     9.0650    16.5410 c6         1 WK9      -0.068400
     25 C25          8.1490     6.9400    18.2700 c6         1 WK9      -0.060400
     26 C26          6.5770     8.4070    23.7340 c3         1 WK9       0.158900
     27 H27          5.9680     8.5450    19.0560 hn         1 WK9       0.324500
     28 H1           1.2750     7.3940    20.3130 h1         1 WK9       0.074200
     29 H28          1.0640     8.9660    21.1170 h1         1 WK9       0.074200
     30 H29          6.0160     7.4730    15.6130 hc         1 WK9       0.077700
     31 H30          8.0180     6.4890    16.2040 hc         1 WK9       0.027700
     32 H2           4.1680     5.9120    23.1900 hc         1 WK9       0.062700
     33 H31          3.6620     6.7270    24.6680 hc         1 WK9       0.062700
     34 H32          0.7960     6.0260    25.3860 h1         1 WK9       0.076700
     35 H3           0.0770     5.2940    23.9380 h1         1 WK9       0.076700
     36 H4           2.1750     4.5870    23.0900 hc         1 WK9       0.062700
     37 H33          2.5830     4.5480    24.8030 hc         1 WK9       0.062700
     38 H5           9.6320     8.0950    17.2300 hc         1 WK9       0.017200
     39 H34          9.5160     8.4810    18.9350 hc         1 WK9       0.017200
     40 H35          7.4230     9.6880    18.6000 hc         1 WK9       0.024200
     41 H6           8.5810    10.2850    17.4560 hc         1 WK9       0.024200
     42 H38          7.6900     9.0310    15.6360 hc         1 WK9       0.022700
     43 H37          6.3520     9.8710    16.3820 hc         1 WK9       0.022700
     44 H39          7.5240     7.0210    19.1610 hc         1 WK9       0.049200
     45 H40          8.8530     6.1290    18.4740 hc         1 WK9       0.049200
     46 H43          6.3540     8.2210    24.7820 h1         1 WK9       0.032033
     47 H42          7.4040     7.7640    23.4300 h1         1 WK9       0.032033
     48 H41          6.8850     9.4480    23.6190 h1         1 WK9       0.032033
     49 H7           2.4580    10.3670    19.9180 hs         1 WK9       0.095000
     50 H8           1.1090     8.2130    24.6280 hs         1 WK9       0.250000
@<TRIPOS>BOND
     1     1     2 1   
     2     1     3 2   
     3     1     9 1   
     4     2     4 1   
     5     2     6 2   
     6     3     7 1   
     7     3     8 1   
     8     4     5 1   
     9     4    27 1   
    10     5    10 1   
    11     5    14 2   
    12     6     7 1   
    13     6    49 1   
    14     7    28 1   
    15     7    29 1   
    16     8    13 2   
    17     8    15 1   
    18     9    17 2   
    19     9    23 1   
    20    10    11 1   
    21    10    24 1   
    22    10    30 1   
    23    11    12 1   
    24    11    25 1   
    25    11    31 1   
    26    12    18 1   
    27    12    22 1   
    28    13    16 1   
    29    13    50 1   
    30    15    19 1   
    31    15    32 1   
    32    15    33 1   
    33    16    19 1   
    34    16    34 1   
    35    16    35 1   
    36    19    36 1   
    37    19    37 1   
    38    20    21 1   
    39    20    25 1   
    40    20    38 1   
    41    20    39 1   
    42    21    24 1   
    43    21    40 1   
    44    21    41 1   
    45    23    26 1   
    46    24    42 1   
    47    24    43 1   
    48    25    44 1   
    49    25    45 1   
    50    26    46 1   
    51    26    47 1   
    52    26    48 1   
@<TRIPOS>SUBSTRUCTURE
     1 WK9         1 TEMP              0 ****  ****    0 ROOT
