@<TRIPOS>MOLECULE
WKC
   69    73     1     0     0
SMALL
No Charge or Current Charge


@<TRIPOS>ATOM
      1 C11          8.8380    -5.0020   -17.0340 c6         1 WKC       0.199800
      2 C12          8.1900    -5.8630   -14.7330 ca         1 WKC       0.630900
      3 C13          7.2160    -6.2290   -13.7500 ca         1 WKC       0.180900
      4 C01         14.2150    -5.1760   -19.9550 c3         1 WKC       0.090300
      5 C03         11.9470    -3.8720   -20.0790 c5         1 WKC       0.070000
      6 C04         10.5760    -4.1380   -19.3510 c5         1 WKC       0.087000
      7 C06          9.8660    -5.9950   -17.6540 c6         1 WKC       0.096700
      8 C07          9.0880    -7.0960   -18.4230 c6         1 WKC      -0.098400
      9 C08          8.0490    -7.7850   -17.4950 c6         1 WKC      -0.106400
     10 C09          7.1040    -6.7580   -16.8150 c6         1 WKC       0.209800
     11 C15          8.8420    -6.1360   -12.1110 ca         1 WKC       0.098500
     12 C16          9.2900    -6.3070   -10.6670 c          1 WKC       0.535600
     13 C19          9.7970    -5.7570   -13.1130 ca         1 WKC       0.682900
     14 C21         12.2650    -5.2880   -13.6670 ca         1 WKC       0.307000
     15 C22         12.2140    -4.4660   -14.8100 ca         1 WKC      -0.135500
     16 C23         13.3590    -4.2600   -15.5990 ca         1 WKC      -0.081500
     17 C24         14.5820    -4.8610   -15.2480 ca         1 WKC      -0.100300
     18 C25         14.6430    -5.6580   -14.0860 ca         1 WKC      -0.081500
     19 C26         13.4940    -5.8630   -13.3020 ca         1 WKC      -0.135500
     20 C27         15.8230    -4.6450   -16.1270 c6         1 WKC      -0.008400
     21 C28         16.3480    -5.9750   -16.7320 c6         1 WKC      -0.108900
     22 C29         17.6010    -5.7310   -17.6070 c6         1 WKC       0.146800
     23 C31         18.2090    -3.7430   -16.2750 c6         1 WKC       0.146800
     24 C32         16.9710    -3.9320   -15.3650 c6         1 WKC      -0.108900
     25 C34         12.1590    -5.7970   -18.6880 c          1 WKC       0.591000
     26 N02         12.8080    -4.9630   -19.5770 n          1 WKC      -0.400800
     27 N05         10.8670    -5.3360   -18.5310 n          1 WKC      -0.421800
     28 N10          7.9000    -5.7170   -16.1130 nh         1 WKC      -0.754300
     29 N14          7.5220    -6.3710   -12.4300 nb         1 WKC      -0.588000
     30 N17          8.3400    -6.6210    -9.7570 nt         1 WKC      -0.580000
     31 N20         11.1450    -5.5350   -12.8660 nu         1 WKC      -0.928900
     32 N30         18.6620    -5.0410   -16.8330 n7         1 WKC      -0.847400
     33 N33          9.4750    -5.6300   -14.4070 nb         1 WKC      -0.810000
     34 O18         10.4480    -6.1880   -10.2900 o          1 WKC      -0.663100
     35 O35         12.6410    -6.7780   -18.1420 o          1 WKC      -0.569000
     36 H1           9.3680    -4.1910   -16.5140 h1         1 WKC       0.068700
     37 H2           8.2640    -4.5200   -17.8400 h1         1 WKC       0.068700
     38 H3           6.1770    -6.4030   -14.0270 h4         1 WKC       0.030100
     39 H4          14.3940    -6.2410   -20.1540 h1         1 WKC       0.044700
     40 H5          14.4490    -4.6000   -20.8590 h1         1 WKC       0.044700
     41 H6          14.8690    -4.8440   -19.1400 h1         1 WKC       0.044700
     42 H7          11.8390    -3.9220   -21.1700 h1         1 WKC       0.050700
     43 H8          10.2890    -3.2810   -18.7260 h1         1 WKC       0.050200
     44 H9          10.4050    -6.4710   -16.8210 h1         1 WKC       0.102700
     45 H10          9.7880    -7.8440   -18.8170 hc         1 WKC       0.050200
     46 H11          8.5770    -6.6550   -19.2900 hc         1 WKC       0.050200
     47 H12          7.4550    -8.5080   -18.0700 hc         1 WKC       0.055700
     48 H13          8.5740    -8.3600   -16.7210 hc         1 WKC       0.055700
     49 H14          6.4650    -6.2870   -17.5780 h1         1 WKC       0.060200
     50 H15          6.4290    -7.2840   -16.1240 h1         1 WKC       0.060200
     51 H16         11.2900    -3.9740   -15.0920 ha         1 WKC       0.129000
     52 H17         13.2890    -3.6340   -16.4850 ha         1 WKC       0.106000
     53 H18         15.5790    -6.1270   -13.7910 ha         1 WKC       0.106000
     54 H19         13.5580    -6.4890   -12.4170 ha         1 WKC       0.129000
     55 H20         15.5380    -3.9940   -16.9660 hc         1 WKC       0.043700
     56 H21         15.5620    -6.4470   -17.3370 hc         1 WKC       0.048200
     57 H22         16.5940    -6.6870   -15.9340 hc         1 WKC       0.048200
     58 H23         17.9820    -6.6930   -17.9820 h1         1 WKC       0.050450
     59 H24         17.3270    -5.1210   -18.4810 h1         1 WKC       0.050450
     60 H25         19.0250    -3.2830   -15.6970 h1         1 WKC       0.050450
     61 H26         17.9590    -3.0560   -17.0970 h1         1 WKC       0.050450
     62 H27         17.2570    -4.5090   -14.4750 hc         1 WKC       0.048200
     63 H28         16.6270    -2.9530   -15.0040 hc         1 WKC       0.048200
     64 H29          8.5950    -6.7470    -8.7890 hn         1 WKC       0.328500
     65 H30          7.3830    -6.7280   -10.0620 hn         1 WKC       0.328500
     66 H31         11.3600    -5.7740   -11.8920 hn         1 WKC       0.546000
     67 H32         18.9330    -5.6480   -16.0510 hn         1 WKC       0.401000
     68 H34         12.3590    -2.8900   -19.8140 h1         1 WKC       0.050700
     69 H35          9.7700    -4.3340   -20.0700 h1         1 WKC       0.050200
@<TRIPOS>BOND
     1     1     7 1   
     2     1    28 1   
     3     1    36 1   
     4     1    37 1   
     5     2     3 ar  
     6     2    28 1   
     7     2    33 ar  
     8     3    29 ar  
     9     3    38 1   
    10     4    26 1   
    11     4    39 1   
    12     4    40 1   
    13     4    41 1   
    14     5     6 1   
    15     5    26 1   
    16     5    42 1   
    17     5    68 1   
    18     6    27 1   
    19     6    43 1   
    20     6    69 1   
    21     7     8 1   
    22     7    27 1   
    23     7    44 1   
    24     8     9 1   
    25     8    45 1   
    26     8    46 1   
    27     9    10 1   
    28     9    47 1   
    29     9    48 1   
    30    10    28 1   
    31    10    49 1   
    32    10    50 1   
    33    11    12 1   
    34    11    13 ar  
    35    11    29 ar  
    36    12    30 1   
    37    12    34 2   
    38    13    31 1   
    39    13    33 ar  
    40    14    15 ar  
    41    14    19 ar  
    42    14    31 1   
    43    15    16 ar  
    44    15    51 1   
    45    16    17 ar  
    46    16    52 1   
    47    17    18 ar  
    48    17    20 1   
    49    18    19 ar  
    50    18    53 1   
    51    19    54 1   
    52    20    21 1   
    53    20    24 1   
    54    20    55 1   
    55    21    22 1   
    56    21    56 1   
    57    21    57 1   
    58    22    32 1   
    59    22    58 1   
    60    22    59 1   
    61    23    24 1   
    62    23    32 1   
    63    23    60 1   
    64    23    61 1   
    65    24    62 1   
    66    24    63 1   
    67    25    26 1   
    68    25    27 1   
    69    25    35 2   
    70    30    64 1   
    71    30    65 1   
    72    31    66 1   
    73    32    67 1   
@<TRIPOS>SUBSTRUCTURE
     1 WKC         1 TEMP              0 ****  ****    0 ROOT
