@<TRIPOS>MOLECULE
WKC
   69    73     1     0     0
SMALL
abcg2


@<TRIPOS>ATOM
      1 C11          8.8920    -4.8140   -16.9640 c6         1 WKC       0.199800
      2 C12          8.2850    -5.7140   -14.7930 ca         1 WKC       0.630900
      3 C13          7.3930    -6.2800   -13.8400 ca         1 WKC       0.180900
      4 C01         14.0730    -5.8940   -19.5420 c3         1 WKC       0.090300
      5 C03         12.0760    -4.4250   -19.9550 c5         1 WKC       0.070000
      6 C04         10.6000    -4.5800   -19.5780 c5         1 WKC       0.087000
      7 C06          9.5500    -5.9880   -17.6980 c6         1 WKC       0.096700
      8 C07          8.4750    -6.7450   -18.4900 c6         1 WKC      -0.098400
      9 C08          7.3260    -7.1700   -17.5680 c6         1 WKC      -0.106400
     10 C09          6.7870    -5.9950   -16.7450 c6         1 WKC       0.209800
     11 C15          9.1010    -6.3960   -12.2930 ca         1 WKC       0.098500
     12 C16          9.5070    -6.7980   -10.9290 c          1 WKC       0.535600
     13 C19          9.9990    -5.8410   -13.2490 ca         1 WKC       0.682900
     14 C21         12.4030    -5.3410   -13.7580 ca         1 WKC       0.307000
     15 C22         12.3140    -4.6960   -14.9940 ca         1 WKC      -0.135500
     16 C23         13.4650    -4.4390   -15.7310 ca         1 WKC      -0.081500
     17 C24         14.7320    -4.7890   -15.2740 ca         1 WKC      -0.100300
     18 C25         14.8130    -5.4090   -14.0230 ca         1 WKC      -0.081500
     19 C26         13.6770    -5.6840   -13.2800 ca         1 WKC      -0.135500
     20 C27         15.9590    -4.5110   -16.1080 c6         1 WKC      -0.008400
     21 C28         16.6990    -5.7950   -16.5160 c6         1 WKC      -0.108900
     22 C29         17.9230    -5.4670   -17.3740 c6         1 WKC       0.146800
     23 C31         18.1610    -3.2940   -16.3160 c6         1 WKC       0.146800
     24 C32         16.9440    -3.5510   -15.4230 c6         1 WKC      -0.108900
     25 C34         11.8510    -6.2550   -18.5450 c          1 WKC       0.591000
     26 N02         12.6400    -5.7000   -19.5280 n          1 WKC      -0.400800
     27 N05         10.6790    -5.5470   -18.4880 n          1 WKC      -0.421800
     28 N10          7.8880    -5.3290   -16.0390 nh         1 WKC      -0.754300
     29 N14          7.8210    -6.5900   -12.6370 nb         1 WKC      -0.588000
     30 N17          8.5320    -7.2980   -10.1490 nt         1 WKC      -0.580000
     31 N20         11.3130    -5.6700   -12.9390 nu         1 WKC      -0.928900
     32 N30         18.8480    -4.5160   -16.7490 n7         1 WKC      -0.847400
     33 N33          9.5620    -5.5080   -14.4640 nb         1 WKC      -0.810000
     34 O18         10.6780    -6.6830   -10.5190 o          1 WKC      -0.663100
     35 O35         12.1470    -7.2260   -17.8480 o          1 WKC      -0.569000
     36 H1           9.6260    -4.2280   -16.4240 h1         1 WKC       0.068700
     37 H2           8.3770    -4.1630   -17.6730 h1         1 WKC       0.068700
     38 H3           6.3500    -6.4530   -14.0590 h4         1 WKC       0.030100
     39 H4          14.3030    -6.8720   -19.1270 h1         1 WKC       0.044700
     40 H5          14.4420    -5.8460   -20.5670 h1         1 WKC       0.044700
     41 H6          14.5860    -5.1280   -18.9480 h1         1 WKC       0.044700
     42 H7          12.2240    -4.2610   -21.0210 h1         1 WKC       0.050700
     43 H8          10.1550    -3.6410   -19.2550 h1         1 WKC       0.050200
     44 H9           9.9700    -6.6540   -16.9440 h1         1 WKC       0.102700
     45 H10          8.9170    -7.6190   -18.9730 hc         1 WKC       0.050200
     46 H11          8.0880    -6.0950   -19.2810 hc         1 WKC       0.050200
     47 H12          6.5110    -7.6010   -18.1530 hc         1 WKC       0.055700
     48 H13          7.6760    -7.9450   -16.8790 hc         1 WKC       0.055700
     49 H14          6.3240    -5.2540   -17.4010 h1         1 WKC       0.060200
     50 H15          6.0290    -6.3260   -16.0420 h1         1 WKC       0.060200
     51 H16         11.3540    -4.4110   -15.3830 ha         1 WKC       0.129000
     52 H17         13.3640    -3.9560   -16.6960 ha         1 WKC       0.106000
     53 H18         15.7780    -5.6950   -13.6230 ha         1 WKC       0.106000
     54 H19         13.7650    -6.1800   -12.3200 ha         1 WKC       0.129000
     55 H20         15.6190    -4.0250   -17.0290 hc         1 WKC       0.043700
     56 H21         16.0230    -6.4580   -17.0630 hc         1 WKC       0.048200
     57 H22         17.0230    -6.3300   -15.6180 hc         1 WKC       0.048200
     58 H23         18.4740    -6.3790   -17.6140 h1         1 WKC       0.050450
     59 H24         17.5900    -5.0320   -18.3230 h1         1 WKC       0.050450
     60 H25         18.8820    -2.6550   -15.8020 h1         1 WKC       0.050450
     61 H26         17.8370    -2.7590   -17.2150 h1         1 WKC       0.050450
     62 H27         17.2770    -3.9850   -14.4740 hc         1 WKC       0.048200
     63 H28         16.4450    -2.6060   -15.1900 hc         1 WKC       0.048200
     64 H29          8.7470    -7.5950    -9.2120 hn         1 WKC       0.328500
     65 H30          7.5960    -7.3870   -10.5100 hn         1 WKC       0.328500
     66 H31         11.5300    -6.0040   -12.0020 hn         1 WKC       0.546000
     67 H32         19.2670    -4.9580   -15.9360 hn         1 WKC       0.401000
     68 H34         12.5420    -3.5990   -19.4020 h1         1 WKC       0.050700
     69 H35         10.0150    -4.9780   -20.4130 h1         1 WKC       0.050200
@<TRIPOS>BOND
     1     1     7 1   
     2     1    28 1   
     3     1    36 1   
     4     1    37 1   
     5     2     3 ar  
     6     2    28 1   
     7     2    33 ar  
     8     3    29 ar  
     9     3    38 1   
    10     4    26 1   
    11     4    39 1   
    12     4    40 1   
    13     4    41 1   
    14     5     6 1   
    15     5    26 1   
    16     5    42 1   
    17     5    68 1   
    18     6    27 1   
    19     6    43 1   
    20     6    69 1   
    21     7     8 1   
    22     7    27 1   
    23     7    44 1   
    24     8     9 1   
    25     8    45 1   
    26     8    46 1   
    27     9    10 1   
    28     9    47 1   
    29     9    48 1   
    30    10    28 1   
    31    10    49 1   
    32    10    50 1   
    33    11    12 1   
    34    11    13 ar  
    35    11    29 ar  
    36    12    30 1   
    37    12    34 2   
    38    13    31 1   
    39    13    33 ar  
    40    14    15 ar  
    41    14    19 ar  
    42    14    31 1   
    43    15    16 ar  
    44    15    51 1   
    45    16    17 ar  
    46    16    52 1   
    47    17    18 ar  
    48    17    20 1   
    49    18    19 ar  
    50    18    53 1   
    51    19    54 1   
    52    20    21 1   
    53    20    24 1   
    54    20    55 1   
    55    21    22 1   
    56    21    56 1   
    57    21    57 1   
    58    22    32 1   
    59    22    58 1   
    60    22    59 1   
    61    23    24 1   
    62    23    32 1   
    63    23    60 1   
    64    23    61 1   
    65    24    62 1   
    66    24    63 1   
    67    25    26 1   
    68    25    27 1   
    69    25    35 2   
    70    30    64 1   
    71    30    65 1   
    72    31    66 1   
    73    32    67 1   
@<TRIPOS>SUBSTRUCTURE
     1 WKC         1 TEMP              0 ****  ****    0 ROOT
