@<TRIPOS>MOLECULE
WKD
   24    24     1     0     0
SMALL
No Charge or Current Charge


@<TRIPOS>ATOM
      1 C10        -33.4490    22.6880    -1.8500 ca         1 WKD      -0.033500
      2 C01        -33.1790    20.1270     3.3670 c3         1 WKD      -0.089100
      3 C02        -33.0130    21.0900     2.1710 c3         1 WKD       0.084300
      4 C04        -34.3020    21.4490     0.0740 ca         1 WKD       0.157100
      5 C05        -35.5380    21.3100    -0.5770 ca         1 WKD      -0.176000
      6 C06        -35.7380    21.8600    -1.8550 ca         1 WKD      -0.033500
      7 C07        -34.6930    22.5520    -2.4950 ca         1 WKD      -0.058000
      8 C08        -34.8940    23.1150    -3.8020 cg         1 WKD       0.328000
      9 C11        -33.2510    22.1380    -0.5700 ca         1 WKD      -0.176000
     10 C12        -32.8970    22.5670     2.6400 c          1 WKD       0.577100
     11 N09        -35.0670    23.5700    -4.8630 n1         1 WKD      -0.455000
     12 N14        -34.0350    23.1580     3.0780 nt         1 WKD      -0.593000
     13 O03        -34.1720    20.8840     1.3270 os         1 WKD      -0.349100
     14 H1         -32.6340    23.2190    -2.3380 ha         1 WKD       0.128000
     15 H2         -32.3300    20.2210     4.0550 hc         1 WKD       0.057033
     16 H3         -34.0990    20.3450     3.9240 hc         1 WKD       0.057033
     17 H4         -33.2220    19.0880     3.0210 hc         1 WKD       0.057033
     18 H5         -32.0890    20.8270     1.6400 h1         1 WKD       0.079700
     19 H6         -36.3470    20.7760    -0.0850 ha         1 WKD       0.134000
     20 H7         -36.7040    21.7460    -2.3460 ha         1 WKD       0.128000
     21 H8         -32.2780    22.2530    -0.1030 ha         1 WKD       0.134000
     22 H9         -34.0090    24.1170     3.3900 hn         1 WKD       0.322000
     23 H10        -34.9040    22.6450     3.0580 hn         1 WKD       0.322000
     24 O13        -31.8490    23.1930     2.6370 o          1 WKD      -0.601100
@<TRIPOS>BOND
     1     1     7 ar  
     2     1     9 ar  
     3     1    14 1   
     4     2     3 1   
     5     2    15 1   
     6     2    16 1   
     7     2    17 1   
     8     3    10 1   
     9     3    13 1   
    10     3    18 1   
    11     4     5 ar  
    12     4     9 ar  
    13     4    13 1   
    14     5     6 ar  
    15     5    19 1   
    16     6     7 ar  
    17     6    20 1   
    18     7     8 1   
    19     8    11 3   
    20     9    21 1   
    21    10    12 1   
    22    10    24 2   
    23    12    22 1   
    24    12    23 1   
@<TRIPOS>SUBSTRUCTURE
     1 WKD         1 TEMP              0 ****  ****    0 ROOT
