@<TRIPOS>MOLECULE
WKD
   24    24     1     0     0
SMALL
bcc


@<TRIPOS>ATOM
      1 C10        -33.4950    22.7330    -1.7480 ca         1 WKD      -0.051500
      2 C01        -33.1600    20.1130     3.2700 c3         1 WKD      -0.089100
      3 C02        -33.0780    21.1100     2.1280 c3         1 WKD       0.061100
      4 C04        -34.3440    21.5150     0.1410 ca         1 WKD       0.157100
      5 C05        -35.5440    21.2980    -0.5430 ca         1 WKD      -0.194000
      6 C06        -35.7150    21.7910    -1.8170 ca         1 WKD      -0.051500
      7 C07        -34.6880    22.5120    -2.4320 ca         1 WKD      -0.058000
      8 C08        -34.8590    23.0180    -3.7520 cg         1 WKD       0.238800
      9 C11        -33.3190    22.2410    -0.4660 ca         1 WKD      -0.194000
     10 C12        -32.8760    22.5210     2.6830 c          1 WKD       0.644100
     11 N09        -34.9980    23.4220    -4.8230 n1         1 WKD      -0.365800
     12 N14        -33.9870    23.2280     2.9040 nt         1 WKD      -0.660000
     13 O03        -34.2730    20.9850     1.3740 os         1 WKD      -0.325900
     14 H1         -32.6970    23.2940    -2.2140 ha         1 WKD       0.146000
     15 H2         -32.2570    20.1720     3.8760 hc         1 WKD       0.057033
     16 H3         -34.0180    20.3090     3.9130 hc         1 WKD       0.057033
     17 H4         -33.2370    19.0990     2.8810 hc         1 WKD       0.057033
     18 H5         -32.2070    20.8690     1.5100 h1         1 WKD       0.079700
     19 H6         -36.3360    20.7380    -0.0650 ha         1 WKD       0.152000
     20 H7         -36.6470    21.6170    -2.3400 ha         1 WKD       0.146000
     21 H8         -32.3790    22.4370     0.0300 ha         1 WKD       0.152000
     22 H9         -33.9280    24.1430     3.3220 hn         1 WKD       0.322000
     23 H10        -34.9060    22.8600     2.7290 hn         1 WKD       0.322000
     24 O13        -31.7470    22.9120     2.9380 o          1 WKD      -0.601100
@<TRIPOS>BOND
     1     1     7 ar  
     2     1     9 ar  
     3     1    14 1   
     4     2     3 1   
     5     2    15 1   
     6     2    16 1   
     7     2    17 1   
     8     3    10 1   
     9     3    13 1   
    10     3    18 1   
    11     4     5 ar  
    12     4     9 ar  
    13     4    13 1   
    14     5     6 ar  
    15     5    19 1   
    16     6     7 ar  
    17     6    20 1   
    18     7     8 1   
    19     8    11 3   
    20     9    21 1   
    21    10    12 1   
    22    10    24 2   
    23    12    22 1   
    24    12    23 1   
@<TRIPOS>SUBSTRUCTURE
     1 WKD         1 TEMP              0 ****  ****    0 ROOT
