@<TRIPOS>MOLECULE
WKE
   40    40     1     0     0
SMALL
No Charge or Current Charge


@<TRIPOS>ATOM
      1 C1         196.6350   166.0490   171.7170 c6         1 WKE       0.172300
      2 C2         198.5370   167.4780   172.0760 c6         1 WKE       0.382300
      3 C3         199.5560   166.3030   171.9430 c6         1 WKE       0.047700
      4 C5         202.0380   166.8640   173.6090 c3         1 WKE      -0.181100
      5 C6         198.9260   165.2250   171.0150 c6         1 WKE       0.153300
      6 C7         197.5250   164.7780   171.5380 c6         1 WKE       0.078700
      7 C8         196.0980   162.7380   170.9730 c          1 WKE       0.571100
      8 C9         195.5860   161.8680   169.7870 c3         1 WKE       0.085300
      9 C10        194.0390   161.8580   169.7480 c3         1 WKE       0.168600
     10 N1         196.9130   163.7910   170.6190 ns         1 WKE      -0.491900
     11 O1         202.8020   167.8960   171.5750 o          1 WKE      -0.597100
     12 O6         199.8110   164.0980   170.8990 oh         1 WKE      -0.639000
     13 O3         195.8020   162.5140   172.1400 o          1 WKE      -0.590100
     14 O4         196.0890   162.3080   168.4930 oh         1 WKE      -0.650000
     15 O5         193.5850   161.0720   168.6310 oh         1 WKE      -0.649000
     16 N          200.8730   166.7500   171.4060 ns         1 WKE      -0.517900
     17 C          195.2530   165.7640   172.3550 c3         1 WKE      -0.085100
     18 O          197.2930   166.9960   172.5830 os         1 WKE      -0.480000
     19 H1         196.4700   166.5260   170.7390 h1         1 WKE       0.029700
     20 H2         198.3780   167.9640   171.1020 h2         1 WKE       0.015700
     21 H4         199.6900   165.8570   172.9380 h1         1 WKE       0.102700
     22 H5         202.9780   167.1990   174.0610 hc         1 WKE       0.067367
     23 H6         201.1760   167.2660   174.1500 hc         1 WKE       0.067367
     24 H7         201.9050   165.7810   173.7130 hc         1 WKE       0.067367
     25 H8         198.7880   165.6750   170.0210 h1         1 WKE       0.023700
     26 H9         197.6580   164.3070   172.5230 h1         1 WKE       0.112700
     27 H10        195.9310   160.8450   169.9900 h1         1 WKE       0.078700
     28 H11        193.6700   162.8900   169.6680 h1         1 WKE       0.035200
     29 H12        193.6580   161.4390   170.6890 h1         1 WKE       0.035200
     30 H13        197.1190   163.8510   169.6270 hn         1 WKE       0.326500
     31 H14        200.7100   164.4670   170.7560 ho         1 WKE       0.457000
     32 H15        195.4910   161.8900   167.8310 ho         1 WKE       0.452000
     33 H16        192.6020   161.0520   168.6730 ho         1 WKE       0.447000
     34 H17        200.9100   166.9860   170.4210 hn         1 WKE       0.303500
     35 H18        194.7090   166.6970   172.5430 hc         1 WKE       0.051700
     36 H19        194.6290   165.1510   171.6950 hc         1 WKE       0.051700
     37 H20        195.3570   165.2370   173.3110 hc         1 WKE       0.051700
     38 O2         198.9600   168.4320   173.0260 oh         1 WKE      -0.634000
     39 H3         198.1320   168.6540   173.5010 ho         1 WKE       0.464000
     40 C4         201.9340   167.2450   172.1340 c          1 WKE       0.614100
@<TRIPOS>BOND
     1     1     6 1   
     2     1    17 1   
     3     1    18 1   
     4     1    19 1   
     5     2     3 1   
     6     2    18 1   
     7     2    20 1   
     8     2    38 1   
     9     3     5 1   
    10     3    16 1   
    11     3    21 1   
    12     4    22 1   
    13     4    23 1   
    14     4    24 1   
    15     4    40 1   
    16     5     6 1   
    17     5    12 1   
    18     5    25 1   
    19     6    10 1   
    20     6    26 1   
    21     7     8 1   
    22     7    10 1   
    23     7    13 2   
    24     8     9 1   
    25     8    14 1   
    26     8    27 1   
    27     9    15 1   
    28     9    28 1   
    29     9    29 1   
    30    10    30 1   
    31    11    40 2   
    32    12    31 1   
    33    14    32 1   
    34    15    33 1   
    35    16    34 1   
    36    16    40 1   
    37    17    35 1   
    38    17    36 1   
    39    17    37 1   
    40    38    39 1   
@<TRIPOS>SUBSTRUCTURE
     1 WKE         1 TEMP              0 ****  ****    0 ROOT
