@<TRIPOS>MOLECULE
WKE
   40    40     1     0     0
SMALL
abcg2


@<TRIPOS>ATOM
      1 C1         196.5480   166.0840   171.7200 c6         1 WKE       0.172300
      2 C2         198.4330   167.4530   172.1000 c6         1 WKE       0.382300
      3 C3         199.4100   166.2850   171.9580 c6         1 WKE       0.047700
      4 C5         201.8630   166.5500   173.5600 c3         1 WKE      -0.181100
      5 C6         198.8100   165.2120   171.0470 c6         1 WKE       0.153300
      6 C7         197.4110   164.8280   171.5190 c6         1 WKE       0.078700
      7 C8         196.4080   162.6860   170.8270 c          1 WKE       0.571100
      8 C9         195.7140   161.9800   169.6590 c3         1 WKE       0.085300
      9 C10        194.2210   161.9530   169.9490 c3         1 WKE       0.168600
     10 N1         196.7890   163.9430   170.5690 ns         1 WKE      -0.491900
     11 O1         202.7690   167.5120   171.5690 o          1 WKE      -0.597100
     12 O6         199.5980   164.0540   171.0220 oh         1 WKE      -0.639000
     13 O3         196.5440   162.1200   171.9020 o          1 WKE      -0.590100
     14 O4         195.9180   162.6170   168.4240 oh         1 WKE      -0.650000
     15 O5         193.5860   161.1810   168.9620 oh         1 WKE      -0.649000
     16 N          200.6790   166.7150   171.4260 ns         1 WKE      -0.517900
     17 C          195.1930   165.7670   172.3160 c3         1 WKE      -0.085100
     18 O          197.2070   166.9770   172.5950 os         1 WKE      -0.480000
     19 H1         196.4060   166.5640   170.7370 h1         1 WKE       0.029700
     20 H2         198.2730   167.9090   171.1060 h2         1 WKE       0.015700
     21 H4         199.5620   165.8460   172.9480 h1         1 WKE       0.102700
     22 H5         202.8540   166.7470   173.9610 hc         1 WKE       0.067367
     23 H6         201.1320   167.0960   174.1560 hc         1 WKE       0.067367
     24 H7         201.6480   165.4870   173.6710 hc         1 WKE       0.067367
     25 H8         198.7150   165.6460   170.0360 h1         1 WKE       0.023700
     26 H9         197.4870   164.3010   172.4740 h1         1 WKE       0.112700
     27 H10        196.0870   160.9480   169.6480 h1         1 WKE       0.078700
     28 H11        193.8460   162.9860   169.9680 h1         1 WKE       0.035200
     29 H12        194.0730   161.5380   170.9520 h1         1 WKE       0.035200
     30 H13        196.6310   164.2890   169.6330 hn         1 WKE       0.326500
     31 H14        200.4730   164.2920   170.6950 ho         1 WKE       0.457000
     32 H15        196.7820   162.3630   168.0830 ho         1 WKE       0.452000
     33 H16        192.6480   161.1480   169.1680 ho         1 WKE       0.447000
     34 H17        200.6700   167.0670   170.4770 hn         1 WKE       0.303500
     35 H18        194.6120   166.6800   172.4500 hc         1 WKE       0.051700
     36 H19        194.6270   165.1100   171.6570 hc         1 WKE       0.051700
     37 H20        195.2940   165.2750   173.2840 hc         1 WKE       0.051700
     38 O2         198.9510   168.3590   172.9980 oh         1 WKE      -0.634000
     39 H3         198.5270   169.2160   172.8760 ho         1 WKE       0.464000
     40 C4         201.8170   166.9770   172.1150 c          1 WKE       0.614100
@<TRIPOS>BOND
     1     1     6 1   
     2     1    17 1   
     3     1    18 1   
     4     1    19 1   
     5     2     3 1   
     6     2    18 1   
     7     2    20 1   
     8     2    38 1   
     9     3     5 1   
    10     3    16 1   
    11     3    21 1   
    12     4    22 1   
    13     4    23 1   
    14     4    24 1   
    15     4    40 1   
    16     5     6 1   
    17     5    12 1   
    18     5    25 1   
    19     6    10 1   
    20     6    26 1   
    21     7     8 1   
    22     7    10 1   
    23     7    13 2   
    24     8     9 1   
    25     8    14 1   
    26     8    27 1   
    27     9    15 1   
    28     9    28 1   
    29     9    29 1   
    30    10    30 1   
    31    11    40 2   
    32    12    31 1   
    33    14    32 1   
    34    15    33 1   
    35    16    34 1   
    36    16    40 1   
    37    17    35 1   
    38    17    36 1   
    39    17    37 1   
    40    38    39 1   
@<TRIPOS>SUBSTRUCTURE
     1 WKE         1 TEMP              0 ****  ****    0 ROOT
