@<TRIPOS>MOLECULE
WKF
   85    91     1     0     0
SMALL
abcg2


@<TRIPOS>ATOM
      1 N3          21.9150   -37.1050    20.3720 ns         1 WKF      -0.139000
      2 C4          22.8410   -36.5970    21.2760 ca         1 WKF       0.006500
      3 C5          24.0250   -37.1840    21.6530 ca         1 WKF      -0.141500
      4 C6          24.8620   -36.5470    22.5930 ca         1 WKF      -0.070500
      5 C7          24.5340   -35.3430    23.1500 ca         1 WKF      -0.128500
      6 C8          23.3260   -34.7130    22.7790 ca         1 WKF      -0.053500
      7 C13         22.9040   -33.4710    23.3010 ca         1 WKF      -0.061500
      8 C15         19.7650   -37.4240    18.5300 c6         1 WKF      -0.063400
      9 C17         20.9640   -37.3650    16.2940 c6         1 WKF       0.179500
     10 C20         22.0820   -34.7360    13.8110 c3         1 WKF      -0.072400
     11 C21         23.1540   -34.0010    14.6050 c3         1 WKF      -0.075400
     12 C22         24.1490   -33.2750    13.7110 c3         1 WKF      -0.060400
     13 C26         27.0810   -30.8500    14.4220 c5         1 WKF       0.100700
     14 C28         26.3500   -31.9530    13.5990 c5         1 WKF       0.099700
     15 C11         20.9500   -33.6350    21.9400 ca         1 WKF       0.353400
     16 C12         21.7190   -32.9310    22.8860 ca         1 WKF      -0.165000
     17 C14         20.5870   -38.6460    18.9930 c6         1 WKF      -0.201000
     18 C16         20.5000   -36.5620    17.5070 c6         1 WKF      -0.081900
     19 C19         21.1100   -35.5150    14.6870 c3         1 WKF       0.163800
     20 C2          21.8610   -38.3310    19.8000 c          1 WKF       0.614600
     21 C23         25.2610   -32.5830    14.4780 c5         1 WKF       0.072300
     22 C25         26.3760   -30.6950    15.7740 c5         1 WKF       0.027600
     23 C30         26.1820   -29.9020    12.4750 c          1 WKF       0.615000
     24 C32         21.7580   -38.5830    16.7550 c6         1 WKF      -0.081900
     25 C33         20.9780   -39.4410    17.7420 c6         1 WKF      -0.063400
     26 C34         19.7190   -39.5200    19.9220 c          1 WKF       0.614600
     27 C36         18.7090   -39.4330    22.1900 ca         1 WKF       0.006500
     28 C37         18.6330   -38.5400    23.3050 ca         1 WKF       0.231000
     29 C39         19.2200   -36.5200    24.2040 ca         1 WKF       0.353400
     30 C40         18.5220   -36.7890    25.3970 ca         1 WKF      -0.165000
     31 C41         17.8700   -37.9840    25.5210 ca         1 WKF      -0.061500
     32 C42         17.9090   -38.9140    24.4580 ca         1 WKF      -0.053500
     33 C43         17.2700   -40.1730    24.5030 ca         1 WKF      -0.128500
     34 C44         17.3630   -41.0090    23.4260 ca         1 WKF      -0.070500
     35 C45         18.0770   -40.6520    22.2630 ca         1 WKF      -0.141500
     36 C9          22.4750   -35.3350    21.8390 ca         1 WKF       0.231000
     37 N10         21.3100   -34.7860    21.4370 nb         1 WKF      -0.686500
     38 N18         21.8000   -36.5560    15.4260 n7         1 WKF      -0.872400
     39 N27         26.9580   -29.6950    13.5710 ns         1 WKF      -0.519900
     40 N29         25.8180   -31.2130    12.4850 ns         1 WKF      -0.518900
     41 N35         19.4450   -38.9440    21.1190 ns         1 WKF      -0.139000
     42 N38         19.2730   -37.3560    23.2020 nb         1 WKF      -0.686500
     43 O1          22.7210   -39.1780    19.9470 o          1 WKF      -0.570100
     44 O31         25.8780   -29.0730    11.6330 o          1 WKF      -0.577000
     45 O46         19.3180   -40.6180    19.5960 o          1 WKF      -0.570100
     46 S24         24.6590   -31.2080    15.5150 ss         1 WKF      -0.408000
     47 H1          21.1640   -36.4460    20.2000 hn         1 WKF       0.187500
     48 H2          24.3270   -38.1320    21.2390 ha         1 WKF       0.151000
     49 H3          25.7870   -37.0350    22.8700 ha         1 WKF       0.117500
     50 H4          25.1850   -34.8640    23.8700 ha         1 WKF       0.118000
     51 H5          23.5260   -32.9590    24.0260 ha         1 WKF       0.121000
     52 H6          19.4200   -36.8030    19.3620 hc         1 WKF       0.062450
     53 H7          18.8490   -37.8110    18.0740 hc         1 WKF       0.062450
     54 H8          20.0630   -37.7300    15.7680 h1         1 WKF       0.019700
     55 H9          21.5140   -34.0190    13.2100 hc         1 WKF       0.037700
     56 H10         22.5540   -35.4210    13.0980 hc         1 WKF       0.037700
     57 H11         23.6880   -34.7080    15.2450 hc         1 WKF       0.055700
     58 H12         22.6680   -33.2880    15.2800 hc         1 WKF       0.055700
     59 H13         23.6270   -32.5500    13.0800 hc         1 WKF       0.048700
     60 H14         24.6130   -33.9990    13.0310 hc         1 WKF       0.048700
     61 H15         28.1310   -31.1000    14.5900 h1         1 WKF       0.071700
     62 H16         27.0370   -32.7360    13.2640 h1         1 WKF       0.063700
     63 H17         20.0080   -33.2230    21.5940 h4         1 WKF       0.019600
     64 H18         21.3670   -31.9820    23.2670 ha         1 WKF       0.124500
     65 H19         21.3750   -36.0770    17.9500 hc         1 WKF       0.054200
     66 H20         19.8270   -35.7580    17.2030 hc         1 WKF       0.054200
     67 H21         20.6420   -34.8240    15.3930 h1         1 WKF       0.030700
     68 H22         20.2950   -35.9160    14.0640 h1         1 WKF       0.030700
     69 H23         25.7460   -33.3080    15.1410 h1         1 WKF       0.072700
     70 H24         26.4180   -29.6710    16.1440 h1         1 WKF       0.077200
     71 H25         26.8430   -31.3440    16.5160 h1         1 WKF       0.077200
     72 H26         22.0250   -39.1950    15.8880 hc         1 WKF       0.054200
     73 H27         22.7030   -38.2470    17.1940 hc         1 WKF       0.054200
     74 H28         20.0630   -39.7950    17.2610 hc         1 WKF       0.062450
     75 H29         21.5520   -40.3250    18.0130 hc         1 WKF       0.062450
     76 H30         19.7470   -35.5790    24.0870 h4         1 WKF       0.019600
     77 H31         18.5110   -36.0560    26.1920 ha         1 WKF       0.124500
     78 H32         17.3230   -38.2320    26.4220 ha         1 WKF       0.121000
     79 H33         16.7160   -40.4590    25.3870 ha         1 WKF       0.118000
     80 H34         16.8780   -41.9760    23.4510 ha         1 WKF       0.117500
     81 H35         18.1180   -41.3450    21.4400 ha         1 WKF       0.151000
     82 H36         22.2550   -37.1670    14.7560 hn         1 WKF       0.411000
     83 H38         27.1780   -28.7670    13.8900 hn         1 WKF       0.339500
     84 H39         25.4760   -31.6610    11.6520 hn         1 WKF       0.339500
     85 H40         19.8110   -38.0190    21.3160 hn         1 WKF       0.187500
@<TRIPOS>BOND
     1     1     2 1   
     2     1    20 1   
     3     1    47 1   
     4     2     3 ar  
     5     2    36 ar  
     6     3     4 ar  
     7     3    48 1   
     8     4     5 ar  
     9     4    49 1   
    10     5     6 ar  
    11     5    50 1   
    12     6     7 ar  
    13     6    36 ar  
    14     7    16 ar  
    15     7    51 1   
    16     8    17 1   
    17     8    18 1   
    18     8    52 1   
    19     8    53 1   
    20     9    18 1   
    21     9    24 1   
    22     9    38 1   
    23     9    54 1   
    24    10    11 1   
    25    10    19 1   
    26    10    55 1   
    27    10    56 1   
    28    11    12 1   
    29    11    57 1   
    30    11    58 1   
    31    12    21 1   
    32    12    59 1   
    33    12    60 1   
    34    13    14 1   
    35    13    22 1   
    36    13    39 1   
    37    13    61 1   
    38    14    21 1   
    39    14    40 1   
    40    14    62 1   
    41    15    16 ar  
    42    15    37 ar  
    43    15    63 1   
    44    16    64 1   
    45    17    20 1   
    46    17    25 1   
    47    17    26 1   
    48    18    65 1   
    49    18    66 1   
    50    19    38 1   
    51    19    67 1   
    52    19    68 1   
    53    20    43 2   
    54    21    46 1   
    55    21    69 1   
    56    22    46 1   
    57    22    70 1   
    58    22    71 1   
    59    23    39 1   
    60    23    40 1   
    61    23    44 2   
    62    24    25 1   
    63    24    72 1   
    64    24    73 1   
    65    25    74 1   
    66    25    75 1   
    67    26    41 1   
    68    26    45 2   
    69    27    28 ar  
    70    27    35 ar  
    71    27    41 1   
    72    28    32 ar  
    73    28    42 ar  
    74    29    30 ar  
    75    29    42 ar  
    76    29    76 1   
    77    30    31 ar  
    78    30    77 1   
    79    31    32 ar  
    80    31    78 1   
    81    32    33 ar  
    82    33    34 ar  
    83    33    79 1   
    84    34    35 ar  
    85    34    80 1   
    86    35    81 1   
    87    36    37 ar  
    88    38    82 1   
    89    39    83 1   
    90    40    84 1   
    91    41    85 1   
@<TRIPOS>SUBSTRUCTURE
     1 WKF         1 TEMP              0 ****  ****    0 ROOT
