@<TRIPOS>MOLECULE
WKF
   85    91     1     0     0
SMALL
No Charge or Current Charge


@<TRIPOS>ATOM
      1 N3          22.9710   -36.8010    20.2590 ns         1 WKF      -0.139000
      2 C4          24.3910   -36.7280    20.1510 ca         1 WKF       0.006500
      3 C5          25.2230   -37.8720    20.1920 ca         1 WKF      -0.141500
      4 C6          26.6150   -37.7460    20.0690 ca         1 WKF      -0.070500
      5 C7          27.1950   -36.4820    19.8990 ca         1 WKF      -0.128500
      6 C8          26.3810   -35.3370    19.8480 ca         1 WKF      -0.053500
      7 C13         26.9680   -34.0710    19.6710 ca         1 WKF      -0.061500
      8 C15         20.2010   -35.9660    20.4450 c6         1 WKF      -0.063400
      9 C17         19.9930   -35.9780    17.8530 c6         1 WKF       0.179500
     10 C20         21.1370   -33.4510    15.1940 c3         1 WKF      -0.072400
     11 C21         22.5810   -33.2760    15.7290 c3         1 WKF      -0.075400
     12 C22         23.5590   -32.6950    14.6820 c3         1 WKF      -0.060400
     13 C26         27.3630   -31.6070    14.8690 c5         1 WKF       0.100700
     14 C28         26.1010   -32.1890    14.1070 c5         1 WKF       0.099700
     15 C11         24.7460   -33.1260    19.7440 ca         1 WKF       0.353400
     16 C12         26.1310   -32.9480    19.6200 ca         1 WKF      -0.165000
     17 C14         20.5730   -37.5010    20.5150 c6         1 WKF      -0.201000
     18 C16         20.5240   -35.2350    19.1050 c6         1 WKF      -0.081900
     19 C19         20.1590   -34.0120    16.2490 c3         1 WKF       0.163800
     20 C2          22.0880   -37.8430    20.4950 c          1 WKF       0.614600
     21 C23         25.0220   -32.5720    15.1860 c5         1 WKF       0.072300
     22 C25         27.0210   -31.5050    16.3930 c5         1 WKF       0.027600
     23 C30         26.3610   -29.9090    13.5890 c          1 WKF       0.615000
     24 C32         20.3810   -37.4720    17.9130 c6         1 WKF      -0.081900
     25 C33         19.8950   -38.1210    19.2320 c6         1 WKF      -0.063400
     26 C34         19.9900   -38.0380    21.8490 c          1 WKF       0.614600
     27 C36         17.9620   -39.3620    22.7420 ca         1 WKF       0.006500
     28 C37         16.8310   -40.0780    22.2690 ca         1 WKF       0.231000
     29 C39         15.4860   -40.8230    20.5070 ca         1 WKF       0.353400
     30 C40         14.6140   -41.4890    21.3800 ca         1 WKF      -0.165000
     31 C41         14.8660   -41.4440    22.7580 ca         1 WKF      -0.061500
     32 C42         15.9890   -40.7290    23.2120 ca         1 WKF      -0.053500
     33 C43         16.2660   -40.6640    24.5880 ca         1 WKF      -0.128500
     34 C44         17.3800   -39.9490    25.0460 ca         1 WKF      -0.070500
     35 C45         18.2240   -39.3000    24.1310 ca         1 WKF      -0.141500
     36 C9          24.9690   -35.4430    19.9730 ca         1 WKF       0.231000
     37 N10         24.1750   -34.3400    19.9230 nb         1 WKF      -0.686500
     38 N18         20.5410   -35.3910    16.6150 n7         1 WKF      -0.872400
     39 N27         27.3990   -30.2200    14.3990 ns         1 WKF      -0.519900
     40 N29         25.6050   -31.0110    13.3860 ns         1 WKF      -0.518900
     41 N35         18.7840   -38.7200    21.7710 ns         1 WKF      -0.139000
     42 N38         16.5690   -40.1340    20.9350 nb         1 WKF      -0.686500
     43 O1          22.4620   -38.9770    20.7710 o          1 WKF      -0.570100
     44 O31         26.1510   -28.8140    13.1050 o          1 WKF      -0.577000
     45 O46         20.6250   -37.9240    22.8910 o          1 WKF      -0.570100
     46 S24         25.1860   -31.2940    16.5140 ss         1 WKF      -0.408000
     47 H1          22.5260   -35.9040    20.1230 hn         1 WKF       0.187500
     48 H2          24.8130   -38.8690    20.3120 ha         1 WKF       0.151000
     49 H3          27.2460   -38.6320    20.1030 ha         1 WKF       0.117500
     50 H4          28.2750   -36.3950    19.8030 ha         1 WKF       0.118000
     51 H5          28.0460   -33.9600    19.5740 ha         1 WKF       0.121000
     52 H6          20.6850   -35.4270    21.2730 hc         1 WKF       0.062450
     53 H7          19.1220   -35.8560    20.6300 hc         1 WKF       0.062450
     54 H8          18.8960   -35.9050    17.8300 h1         1 WKF       0.019700
     55 H9          20.7620   -32.4770    14.8570 hc         1 WKF       0.037700
     56 H10         21.1430   -34.1090    14.3160 hc         1 WKF       0.037700
     57 H11         22.9640   -34.2460    16.0690 hc         1 WKF       0.055700
     58 H12         22.5560   -32.6220    16.6090 hc         1 WKF       0.055700
     59 H13         23.1850   -31.7150    14.3600 hc         1 WKF       0.048700
     60 H14         23.5400   -33.3420    13.7960 hc         1 WKF       0.048700
     61 H15         28.2940   -32.1560    14.6670 h1         1 WKF       0.071700
     62 H16         26.3500   -33.0220    13.4360 h1         1 WKF       0.063700
     63 H17         24.0700   -32.2720    19.7050 h4         1 WKF       0.019600
     64 H18         26.5400   -31.9520    19.4840 ha         1 WKF       0.124500
     65 H19         21.5990   -35.0590    18.9930 hc         1 WKF       0.054200
     66 H20         20.0760   -34.2330    19.1510 hc         1 WKF       0.054200
     67 H21         20.1840   -33.3450    17.1200 h1         1 WKF       0.030700
     68 H22         19.1360   -33.9950    15.8490 h1         1 WKF       0.030700
     69 H23         25.3010   -33.5410    15.6240 h1         1 WKF       0.072700
     70 H24         27.5470   -30.6800    16.8930 h1         1 WKF       0.077200
     71 H25         27.2980   -32.4350    16.9060 h1         1 WKF       0.077200
     72 H26         19.9290   -38.0020    17.0630 hc         1 WKF       0.054200
     73 H27         21.4680   -37.5910    17.8050 hc         1 WKF       0.054200
     74 H28         18.8010   -38.0100    19.2710 hc         1 WKF       0.062450
     75 H29         20.0880   -39.2030    19.1930 hc         1 WKF       0.062450
     76 H30         15.3150   -40.8410    19.4310 h4         1 WKF       0.019600
     77 H31         13.7580   -42.0300    20.9870 ha         1 WKF       0.124500
     78 H32         14.2040   -41.9520    23.4570 ha         1 WKF       0.121000
     79 H33         15.6170   -41.1640    25.3040 ha         1 WKF       0.118000
     80 H34         17.5910   -39.8960    26.1120 ha         1 WKF       0.117500
     81 H35         19.0720   -38.7490    24.5260 ha         1 WKF       0.151000
     82 H36         20.3100   -36.0020    15.8240 hn         1 WKF       0.411000
     83 H38         28.0640   -29.5020    14.6560 hn         1 WKF       0.339500
     84 H39         24.7830   -30.9520    12.7990 hn         1 WKF       0.339500
     85 H40         18.4010   -38.7830    20.8370 hn         1 WKF       0.187500
@<TRIPOS>BOND
     1     1     2 1   
     2     1    20 1   
     3     1    47 1   
     4     2     3 ar  
     5     2    36 ar  
     6     3     4 ar  
     7     3    48 1   
     8     4     5 ar  
     9     4    49 1   
    10     5     6 ar  
    11     5    50 1   
    12     6     7 ar  
    13     6    36 ar  
    14     7    16 ar  
    15     7    51 1   
    16     8    17 1   
    17     8    18 1   
    18     8    52 1   
    19     8    53 1   
    20     9    18 1   
    21     9    24 1   
    22     9    38 1   
    23     9    54 1   
    24    10    11 1   
    25    10    19 1   
    26    10    55 1   
    27    10    56 1   
    28    11    12 1   
    29    11    57 1   
    30    11    58 1   
    31    12    21 1   
    32    12    59 1   
    33    12    60 1   
    34    13    14 1   
    35    13    22 1   
    36    13    39 1   
    37    13    61 1   
    38    14    21 1   
    39    14    40 1   
    40    14    62 1   
    41    15    16 ar  
    42    15    37 ar  
    43    15    63 1   
    44    16    64 1   
    45    17    20 1   
    46    17    25 1   
    47    17    26 1   
    48    18    65 1   
    49    18    66 1   
    50    19    38 1   
    51    19    67 1   
    52    19    68 1   
    53    20    43 2   
    54    21    46 1   
    55    21    69 1   
    56    22    46 1   
    57    22    70 1   
    58    22    71 1   
    59    23    39 1   
    60    23    40 1   
    61    23    44 2   
    62    24    25 1   
    63    24    72 1   
    64    24    73 1   
    65    25    74 1   
    66    25    75 1   
    67    26    41 1   
    68    26    45 2   
    69    27    28 ar  
    70    27    35 ar  
    71    27    41 1   
    72    28    32 ar  
    73    28    42 ar  
    74    29    30 ar  
    75    29    42 ar  
    76    29    76 1   
    77    30    31 ar  
    78    30    77 1   
    79    31    32 ar  
    80    31    78 1   
    81    32    33 ar  
    82    33    34 ar  
    83    33    79 1   
    84    34    35 ar  
    85    34    80 1   
    86    35    81 1   
    87    36    37 ar  
    88    38    82 1   
    89    39    83 1   
    90    40    84 1   
    91    41    85 1   
@<TRIPOS>SUBSTRUCTURE
     1 WKF         1 TEMP              0 ****  ****    0 ROOT
