@<TRIPOS>MOLECULE
WKG
   38    39     1     0     0
SMALL
bcc


@<TRIPOS>ATOM
      1 C10        -29.2590    -6.8280   -21.1790 c3         1 WKG      -0.064400
      2 C13        -26.1290    -7.3740   -20.6790 c3         1 WKG      -0.071400
      3 C15        -28.1330    -8.8430   -20.0820 c3         1 WKG      -0.064400
      4 C01        -33.4750    -5.8940   -19.4470 c3         1 WKG      -0.176100
      5 C02        -32.0590    -6.2720   -19.0740 c          1 WKG       0.675100
      6 C05        -32.3900    -8.4580   -20.2180 c6         1 WKG       0.102000
      7 C06        -31.7090    -8.7460   -21.5500 c6         1 WKG      -0.095400
      8 C07        -30.2540    -9.1520   -21.3420 c6         1 WKG      -0.069400
      9 C08        -29.4630    -8.1720   -20.4580 c6         1 WKG      -0.057000
     10 C09        -30.2710    -7.9400   -19.1710 c6         1 WKG       0.097000
     11 C11        -28.1250    -6.7830   -22.2070 c3         1 WKG      -0.067900
     12 C12        -26.7840    -6.3610   -21.6100 c3         1 WKG      -0.071400
     13 C14        -27.0180    -7.9290   -19.5670 c3         1 WKG      -0.067900
     14 N04        -31.6220    -7.4930   -19.4520 n          1 WKG      -0.477800
     15 O03        -31.3530    -5.4900   -18.4450 o          1 WKG      -0.610100
     16 H1         -29.0800    -6.0440   -20.4360 hc         1 WKG       0.040950
     17 H2         -30.1960    -6.5420   -21.6620 hc         1 WKG       0.040950
     18 H3         -25.7600    -8.2210   -21.2690 hc         1 WKG       0.035450
     19 H4         -25.2430    -6.9110   -20.2350 hc         1 WKG       0.035450
     20 H5         -28.3480    -9.6150   -19.3360 hc         1 WKG       0.040950
     21 H6         -27.7540    -9.3870   -20.9550 hc         1 WKG       0.040950
     22 H7         -33.6820    -4.8960   -19.0700 hc         1 WKG       0.058367
     23 H8         -33.6250    -5.8890   -20.5270 hc         1 WKG       0.058367
     24 H9         -34.2060    -6.5800   -19.0190 hc         1 WKG       0.058367
     25 H10        -33.4070    -8.1090   -20.3740 h1         1 WKG       0.045700
     26 H11        -32.4590    -9.3830   -19.6350 h1         1 WKG       0.045700
     27 H12        -31.7810    -7.8640   -22.1910 hc         1 WKG       0.047200
     28 H13        -32.2510    -9.5460   -22.0600 hc         1 WKG       0.047200
     29 H14        -30.2290   -10.1400   -20.8690 hc         1 WKG       0.040700
     30 H15        -29.7540    -9.2680   -22.3080 hc         1 WKG       0.040700
     31 H16        -30.3350    -8.8820   -18.6120 h1         1 WKG       0.059700
     32 H17        -29.7780    -7.2150   -18.5270 h1         1 WKG       0.059700
     33 H18        -28.3870    -6.0620   -22.9850 hc         1 WKG       0.037950
     34 H19        -28.0240    -7.7450   -22.7210 hc         1 WKG       0.037950
     35 H20        -26.0840    -6.1360   -22.4200 hc         1 WKG       0.035450
     36 H21        -26.9310    -5.4180   -21.0720 hc         1 WKG       0.035450
     37 H22        -26.3820    -8.5070   -18.8910 hc         1 WKG       0.037950
     38 H23        -27.4270    -7.1150   -18.9600 hc         1 WKG       0.037950
@<TRIPOS>BOND
     1     1     9 1   
     2     1    11 1   
     3     1    16 1   
     4     1    17 1   
     5     2    12 1   
     6     2    13 1   
     7     2    18 1   
     8     2    19 1   
     9     3     9 1   
    10     3    13 1   
    11     3    20 1   
    12     3    21 1   
    13     4     5 1   
    14     4    22 1   
    15     4    23 1   
    16     4    24 1   
    17     5    14 1   
    18     5    15 2   
    19     6     7 1   
    20     6    14 1   
    21     6    25 1   
    22     6    26 1   
    23     7     8 1   
    24     7    27 1   
    25     7    28 1   
    26     8     9 1   
    27     8    29 1   
    28     8    30 1   
    29     9    10 1   
    30    10    14 1   
    31    10    31 1   
    32    10    32 1   
    33    11    12 1   
    34    11    33 1   
    35    11    34 1   
    36    12    35 1   
    37    12    36 1   
    38    13    37 1   
    39    13    38 1   
@<TRIPOS>SUBSTRUCTURE
     1 WKG         1 TEMP              0 ****  ****    0 ROOT
