@<TRIPOS>MOLECULE
WKG
   38    39     1     0     0
SMALL
No Charge or Current Charge


@<TRIPOS>ATOM
      1 C10        -29.2430    -6.8190   -21.1550 c3         1 WKG      -0.064400
      2 C13        -26.0730    -7.3750   -20.6970 c3         1 WKG      -0.071400
      3 C15        -28.0880    -8.8720   -20.0900 c3         1 WKG      -0.064400
      4 C01        -33.5370    -5.7940   -19.4610 c3         1 WKG      -0.176100
      5 C02        -32.1080    -6.2060   -19.1020 c          1 WKG       0.608100
      6 C05        -32.4480    -8.5060   -20.1910 c6         1 WKG       0.102000
      7 C06        -31.7580    -8.7860   -21.5450 c6         1 WKG      -0.095400
      8 C07        -30.2750    -9.2000   -21.3400 c6         1 WKG      -0.069400
      9 C08        -29.4660    -8.2030   -20.4380 c6         1 WKG      -0.057000
     10 C09        -30.2800    -7.9730   -19.1220 c6         1 WKG       0.097000
     11 C11        -28.1150    -6.7300   -22.2120 c3         1 WKG      -0.067900
     12 C12        -26.7490    -6.3240   -21.6070 c3         1 WKG      -0.071400
     13 C14        -26.9530    -7.9590   -19.5650 c3         1 WKG      -0.067900
     14 N04        -31.6690    -7.5180   -19.4010 n          1 WKG      -0.410800
     15 O03        -31.3690    -5.4050   -18.5430 o          1 WKG      -0.610100
     16 H1         -29.0580    -6.0410   -20.4040 hc         1 WKG       0.040950
     17 H2         -30.1720    -6.4980   -21.6380 hc         1 WKG       0.040950
     18 H3         -25.7000    -8.1970   -21.3210 hc         1 WKG       0.035450
     19 H4         -25.1860    -6.9140   -20.2450 hc         1 WKG       0.035450
     20 H5         -28.2570    -9.6550   -19.3400 hc         1 WKG       0.040950
     21 H6         -27.7060    -9.4160   -20.9640 hc         1 WKG       0.040950
     22 H7         -33.7700    -4.7700   -19.1470 hc         1 WKG       0.058367
     23 H8         -33.6880    -5.9200   -20.5390 hc         1 WKG       0.058367
     24 H9         -34.2410    -6.5130   -19.0280 hc         1 WKG       0.058367
     25 H10        -33.4790    -8.1770   -20.3690 h1         1 WKG       0.045700
     26 H11        -32.5100    -9.4430   -19.6180 h1         1 WKG       0.045700
     27 H12        -31.8270    -7.8990   -22.1880 hc         1 WKG       0.047200
     28 H13        -32.2950    -9.5850   -22.0730 hc         1 WKG       0.047200
     29 H14        -30.2570   -10.1990   -20.8810 hc         1 WKG       0.040700
     30 H15        -29.7880    -9.3110   -22.3180 hc         1 WKG       0.040700
     31 H16        -30.3350    -8.9150   -18.5580 h1         1 WKG       0.059700
     32 H17        -29.7540    -7.2560   -18.4770 h1         1 WKG       0.059700
     33 H18        -28.3950    -5.9630   -22.9450 hc         1 WKG       0.037950
     34 H19        -28.0260    -7.6700   -22.7680 hc         1 WKG       0.037950
     35 H20        -26.0600    -6.0910   -22.4290 hc         1 WKG       0.035450
     36 H21        -26.8700    -5.3910   -21.0430 hc         1 WKG       0.035450
     37 H22        -26.3040    -8.5610   -18.9170 hc         1 WKG       0.037950
     38 H23        -27.3560    -7.1560   -18.9370 hc         1 WKG       0.037950
@<TRIPOS>BOND
     1     1     9 1   
     2     1    11 1   
     3     1    16 1   
     4     1    17 1   
     5     2    12 1   
     6     2    13 1   
     7     2    18 1   
     8     2    19 1   
     9     3     9 1   
    10     3    13 1   
    11     3    20 1   
    12     3    21 1   
    13     4     5 1   
    14     4    22 1   
    15     4    23 1   
    16     4    24 1   
    17     5    14 1   
    18     5    15 2   
    19     6     7 1   
    20     6    14 1   
    21     6    25 1   
    22     6    26 1   
    23     7     8 1   
    24     7    27 1   
    25     7    28 1   
    26     8     9 1   
    27     8    29 1   
    28     8    30 1   
    29     9    10 1   
    30    10    14 1   
    31    10    31 1   
    32    10    32 1   
    33    11    12 1   
    34    11    33 1   
    35    11    34 1   
    36    12    35 1   
    37    12    36 1   
    38    13    37 1   
    39    13    38 1   
@<TRIPOS>SUBSTRUCTURE
     1 WKG         1 TEMP              0 ****  ****    0 ROOT
