@<TRIPOS>MOLECULE
WKH
   33    33     1     0     0
SMALL
abcg2


@<TRIPOS>ATOM
      1 N1          21.7200     7.8290   -36.0940 n7         1 WKH      -0.866400
      2 C7          19.7700    10.6900   -35.6610 ca         1 WKH      -0.052000
      3 C8          18.5450    11.1330   -35.1710 ca         1 WKH      -0.164000
      4 C9          17.4230    10.3700   -35.4260 ca         1 WKH       0.197000
      5 C1          24.7310     7.5520   -34.9510 c3         1 WKH       0.116000
      6 C5          22.2990    10.0250   -37.0610 c3         1 WKH      -0.083100
      7 C6          19.8930     9.5080   -36.3920 ca         1 WKH      -0.172300
      8 C4          21.2190     8.9590   -36.9030 c3         1 WKH       0.230800
      9 C3          21.8010     8.0760   -34.6560 c3         1 WKH       0.080800
     10 C2          22.4940     6.9130   -33.9600 c          1 WKH       0.598100
     11 F1          16.2200    10.7890   -34.9630 f          1 WKH      -0.174000
     12 C10         17.4760     9.1880   -36.1430 ca         1 WKH      -0.185000
     13 C11         18.7190     8.7910   -36.6000 ca         1 WKH       0.193000
     14 F           18.7830     7.6260   -37.2940 f          1 WKH      -0.180000
     15 O           21.8440     6.1340   -33.2530 o          1 WKH      -0.619100
     16 N           23.8180     6.7580   -34.1370 ns         1 WKH      -0.498900
     17 C           25.2640     6.7730   -36.1480 c3         1 WKH      -0.113100
     18 H1          21.1280     7.0220   -36.2550 hn         1 WKH       0.430000
     19 H3          20.6500    11.2850   -35.4650 ha         1 WKH       0.123000
     20 H4          18.4620    12.0510   -34.6050 ha         1 WKH       0.139000
     21 H5          25.5600     7.8740   -34.3160 h1         1 WKH       0.046700
     22 H6          24.2130     8.4440   -35.2860 h1         1 WKH       0.046700
     23 H7          23.1790     9.5770   -37.5210 hc         1 WKH       0.042033
     24 H8          21.9450    10.8360   -37.6980 hc         1 WKH       0.042033
     25 H9          22.6010    10.4580   -36.1060 hc         1 WKH       0.042033
     26 H10         21.0330     8.5340   -37.8900 h1         1 WKH       0.072700
     27 H11         22.3590     8.9970   -34.4810 h1         1 WKH       0.055700
     28 H12         20.8240     8.1870   -34.1750 h1         1 WKH       0.055700
     29 H13         16.5910     8.5990   -36.3380 ha         1 WKH       0.154000
     30 H14         24.2120     5.9490   -33.6760 hn         1 WKH       0.311500
     31 H15         25.9680     7.3900   -36.7100 hc         1 WKH       0.043700
     32 H16         25.7870     5.8710   -35.8230 hc         1 WKH       0.043700
     33 H17         24.4480     6.4830   -36.8100 hc         1 WKH       0.043700
@<TRIPOS>BOND
     1     1     8 1   
     2     1     9 1   
     3     1    18 1   
     4     2     3 ar  
     5     2     7 ar  
     6     2    19 1   
     7     3     4 ar  
     8     3    20 1   
     9     4    11 1   
    10     4    12 ar  
    11     5    16 1   
    12     5    17 1   
    13     5    21 1   
    14     5    22 1   
    15     6     8 1   
    16     6    23 1   
    17     6    24 1   
    18     6    25 1   
    19     7     8 1   
    20     7    13 ar  
    21     8    26 1   
    22     9    10 1   
    23     9    27 1   
    24     9    28 1   
    25    10    15 2   
    26    10    16 1   
    27    12    13 ar  
    28    12    29 1   
    29    13    14 1   
    30    16    30 1   
    31    17    31 1   
    32    17    32 1   
    33    17    33 1   
@<TRIPOS>SUBSTRUCTURE
     1 WKH         1 TEMP              0 ****  ****    0 ROOT
