@<TRIPOS>MOLECULE
WKH
   33    33     1     0     0
SMALL
No Charge or Current Charge


@<TRIPOS>ATOM
      1 N1          21.7150     7.8810   -36.1710 n7         1 WKH      -0.866400
      2 C7          19.7500    10.5790   -35.5470 ca         1 WKH      -0.052000
      3 C8          18.5040    10.9970   -35.0470 ca         1 WKH      -0.164000
      4 C9          17.3350    10.3190   -35.4170 ca         1 WKH       0.197000
      5 C1          24.9230     7.5150   -34.8100 c3         1 WKH       0.116000
      6 C5          22.2430    10.0890   -37.1880 c3         1 WKH      -0.083100
      7 C6          19.8330     9.4730   -36.4260 ca         1 WKH      -0.172300
      8 C4          21.1750     8.9870   -36.9890 c3         1 WKH       0.230800
      9 C3          21.9500     8.1460   -34.7090 c3         1 WKH       0.080800
     10 C2          22.6070     6.9580   -33.9300 c          1 WKH       0.598100
     11 F1          16.1400    10.7230   -34.9340 f          1 WKH      -0.174000
     12 C10         17.4000     9.2210   -36.2820 ca         1 WKH      -0.185000
     13 C11         18.6420     8.8010   -36.7820 ca         1 WKH       0.193000
     14 F           18.6800     7.7340   -37.6110 f          1 WKH      -0.180000
     15 O           21.9410     6.1330   -33.3190 o          1 WKH      -0.619100
     16 N           23.9860     6.8820   -33.8760 ns         1 WKH      -0.498900
     17 C           25.1100     6.6860   -36.0910 c3         1 WKH      -0.113100
     18 H1          21.0580     7.0930   -36.2480 hn         1 WKH       0.430000
     19 H3          20.6420    11.1170   -35.2360 ha         1 WKH       0.123000
     20 H4          18.4430    11.8460   -34.3710 ha         1 WKH       0.139000
     21 H5          25.8940     7.6150   -34.3050 h1         1 WKH       0.046700
     22 H6          24.5840     8.5250   -35.0700 h1         1 WKH       0.046700
     23 H7          23.1230     9.6750   -37.6950 hc         1 WKH       0.042033
     24 H8          21.8430    10.8950   -37.8130 hc         1 WKH       0.042033
     25 H9          22.5770    10.5240   -36.2400 hc         1 WKH       0.042033
     26 H10         20.9780     8.6010   -38.0010 h1         1 WKH       0.072700
     27 H11         22.5830     9.0280   -34.5580 h1         1 WKH       0.055700
     28 H12         20.9980     8.3580   -34.2040 h1         1 WKH       0.055700
     29 H13         16.4930     8.6950   -36.5650 ha         1 WKH       0.154000
     30 H14         24.3470     6.1380   -33.2910 hn         1 WKH       0.311500
     31 H15         25.8280     7.1760   -36.7590 hc         1 WKH       0.043700
     32 H16         25.4910     5.6860   -35.8520 hc         1 WKH       0.043700
     33 H17         24.1630     6.5750   -36.6300 hc         1 WKH       0.043700
@<TRIPOS>BOND
     1     1     8 1   
     2     1     9 1   
     3     1    18 1   
     4     2     3 ar  
     5     2     7 ar  
     6     2    19 1   
     7     3     4 ar  
     8     3    20 1   
     9     4    11 1   
    10     4    12 ar  
    11     5    16 1   
    12     5    17 1   
    13     5    21 1   
    14     5    22 1   
    15     6     8 1   
    16     6    23 1   
    17     6    24 1   
    18     6    25 1   
    19     7     8 1   
    20     7    13 ar  
    21     8    26 1   
    22     9    10 1   
    23     9    27 1   
    24     9    28 1   
    25    10    15 2   
    26    10    16 1   
    27    12    13 ar  
    28    12    29 1   
    29    13    14 1   
    30    16    30 1   
    31    17    31 1   
    32    17    32 1   
    33    17    33 1   
@<TRIPOS>SUBSTRUCTURE
     1 WKH         1 TEMP              0 ****  ****    0 ROOT
