@<TRIPOS>MOLECULE
WKI
   38    40     1     0     0
SMALL
No Charge or Current Charge


@<TRIPOS>ATOM
      1 C1           7.9710     8.1470    17.6750 ca         1 WKI      -0.101000
      2 C2           7.1090     7.0340    17.6930 ca         1 WKI       0.007700
      3 C3           6.2840     6.8190    18.8150 ca         1 WKI      -0.082000
      4 C4           6.3020     7.7020    19.9250 cp         1 WKI      -0.060000
      5 C5           7.1860     8.8070    19.8800 ca         1 WKI      -0.128000
      6 C6           8.0090     9.0300    18.7650 ca         1 WKI      -0.123000
      7 C7           5.4430     7.4640    21.1300 cp         1 WKI       0.000000
      8 C8           4.0620     7.1330    21.0360 ca         1 WKI       0.124100
      9 C9           3.2840     6.9210    22.1900 ca         1 WKI      -0.128000
     10 C10          3.8730     7.0200    23.4580 ca         1 WKI       0.121000
     11 C11          5.2330     7.3420    23.5780 ca         1 WKI      -0.118000
     12 C12          6.0080     7.5660    22.4260 ca         1 WKI      -0.098000
     13 O13          3.4760     7.0820    19.7900 os         1 WKI      -0.246200
     14 Cl14         2.9030     6.7510    24.8990 cl         1 WKI      -0.235000
     15 C15          7.0820     6.0660    16.5130 c3         1 WKI      -0.187100
     16 C16          6.1830     6.6300    15.4020 c          1 WKI       0.717000
     17 O17          6.6840     7.3900    14.5860 o          1 WKI      -0.727000
     18 O18          4.9880     6.3810    15.4470 o          1 WKI      -0.727000
     19 C19          2.6030     6.0850    19.4180 ca         1 WKI       0.130100
     20 C20          1.5550     6.3960    18.5360 ca         1 WKI      -0.145500
     21 C21          0.6540     5.3960    18.1300 ca         1 WKI      -0.072500
     22 C22          0.8060     4.0810    18.6030 ca         1 WKI      -0.135000
     23 C23          1.8620     3.7630    19.4760 ca         1 WKI      -0.072500
     24 C24          2.7630     4.7630    19.8810 ca         1 WKI      -0.145500
     25 H1           8.6120     8.3250    16.8150 ha         1 WKI       0.108000
     26 H2           5.6310     5.9510    18.8340 ha         1 WKI       0.118000
     27 H3           7.2250     9.5030    20.7150 ha         1 WKI       0.091000
     28 H4           8.6780     9.8870    18.7460 ha         1 WKI       0.092000
     29 H5           2.2260     6.6900    22.1050 ha         1 WKI       0.138000
     30 H6           5.6870     7.4200    24.5630 ha         1 WKI       0.120000
     31 H7           7.0620     7.8090    22.5370 ha         1 WKI       0.121000
     32 H8           8.1130     5.9760    16.1520 hc         1 WKI       0.034700
     33 H9           6.6750     5.1160    16.8780 hc         1 WKI       0.034700
     34 H11          1.4400     7.4130    18.1700 ha         1 WKI       0.126000
     35 H12         -0.1600     5.6390    17.4500 ha         1 WKI       0.108500
     36 H13          0.1100     3.3070    18.2880 ha         1 WKI       0.106000
     37 H14          1.9830     2.7430    19.8350 ha         1 WKI       0.108500
     38 H15          3.5820     4.5080    20.5480 ha         1 WKI       0.126000
@<TRIPOS>BOND
     1     1     2 ar  
     2     1     6 ar  
     3     1    25 1   
     4     2     3 ar  
     5     2    15 1   
     6     3     4 ar  
     7     3    26 1   
     8     4     5 ar  
     9     4     7 1   
    10     5     6 ar  
    11     5    27 1   
    12     6    28 1   
    13     7     8 ar  
    14     7    12 ar  
    15     8     9 ar  
    16     8    13 1   
    17     9    10 ar  
    18     9    29 1   
    19    10    11 ar  
    20    10    14 1   
    21    11    12 ar  
    22    11    30 1   
    23    12    31 1   
    24    13    19 1   
    25    15    16 1   
    26    15    32 1   
    27    15    33 1   
    28    16    17 1   
    29    16    18 1   
    30    19    20 ar  
    31    19    24 ar  
    32    20    21 ar  
    33    20    34 1   
    34    21    22 ar  
    35    21    35 1   
    36    22    23 ar  
    37    22    36 1   
    38    23    24 ar  
    39    23    37 1   
    40    24    38 1   
@<TRIPOS>SUBSTRUCTURE
     1 WKI         1 TEMP              0 ****  ****    0 ROOT
