@<TRIPOS>MOLECULE
WKI
   38    40     1     0     0
SMALL
abcg2


@<TRIPOS>ATOM
      1 C1           7.6970     7.9380    17.6620 ca         1 WKI      -0.101000
      2 C2           6.7880     6.8840    17.7630 ca         1 WKI       0.007700
      3 C3           6.0560     6.7510    18.9410 ca         1 WKI      -0.082000
      4 C4           6.2050     7.6420    20.0050 cp         1 WKI      -0.060000
      5 C5           7.1280     8.6850    19.8850 ca         1 WKI      -0.128000
      6 C6           7.8680     8.8280    18.7170 ca         1 WKI      -0.123000
      7 C7           5.4150     7.4830    21.2480 cp         1 WKI       0.000000
      8 C8           4.0240     7.3290    21.2290 ca         1 WKI       0.124100
      9 C9           3.2850     7.1830    22.3960 ca         1 WKI      -0.128000
     10 C10          3.9490     7.1840    23.6120 ca         1 WKI       0.121000
     11 C11          5.3260     7.3470    23.6800 ca         1 WKI      -0.118000
     12 C12          6.0390     7.4990    22.5000 ca         1 WKI      -0.098000
     13 O13          3.3520     7.4410    20.0270 os         1 WKI      -0.246200
     14 CL14         3.0290     6.9880    25.0870 cl         1 WKI      -0.235000
     15 C15          6.5670     5.9180    16.6370 c3         1 WKI      -0.187100
     16 C16          5.3180     6.2030    15.7540 c          1 WKI       0.717000
     17 O17          4.8780     7.3770    15.7170 o          1 WKI      -0.727000
     18 O18          4.8700     5.2170    15.1150 o          1 WKI      -0.727000
     19 C19          2.7630     6.3400    19.4490 ca         1 WKI       0.130100
     20 C20          2.0370     6.5850    18.2860 ca         1 WKI      -0.145500
     21 C21          1.4460     5.5260    17.6130 ca         1 WKI      -0.072500
     22 C22          1.5730     4.2230    18.0930 ca         1 WKI      -0.135000
     23 C23          2.3010     3.9940    19.2540 ca         1 WKI      -0.072500
     24 C24          2.9010     5.0460    19.9410 ca         1 WKI      -0.145500
     25 H1           8.2750     8.0590    16.7540 ha         1 WKI       0.108000
     26 H2           5.3640     5.9250    19.0320 ha         1 WKI       0.118000
     27 H3           7.2540     9.3890    20.6980 ha         1 WKI       0.091000
     28 H4           8.5780     9.6420    18.6290 ha         1 WKI       0.092000
     29 H5           2.2100     7.0800    22.3430 ha         1 WKI       0.138000
     30 H6           5.8310     7.3510    24.6350 ha         1 WKI       0.120000
     31 H7           7.1140     7.6180    22.5460 ha         1 WKI       0.121000
     32 H8           7.4280     5.9230    15.9610 hc         1 WKI       0.034700
     33 H9           6.4720     4.9000    17.0200 hc         1 WKI       0.034700
     34 H11          1.9560     7.6000    17.9190 ha         1 WKI       0.126000
     35 H12          0.8870     5.7190    16.7060 ha         1 WKI       0.108500
     36 H13          1.1140     3.3990    17.5640 ha         1 WKI       0.106000
     37 H14          2.4130     2.9860    19.6350 ha         1 WKI       0.108500
     38 H15          3.4740     4.8570    20.8370 ha         1 WKI       0.126000
@<TRIPOS>BOND
     1     1     2 ar  
     2     1     6 ar  
     3     1    25 1   
     4     2     3 ar  
     5     2    15 1   
     6     3     4 ar  
     7     3    26 1   
     8     4     5 ar  
     9     4     7 1   
    10     5     6 ar  
    11     5    27 1   
    12     6    28 1   
    13     7     8 ar  
    14     7    12 ar  
    15     8     9 ar  
    16     8    13 1   
    17     9    10 ar  
    18     9    29 1   
    19    10    11 ar  
    20    10    14 1   
    21    11    12 ar  
    22    11    30 1   
    23    12    31 1   
    24    13    19 1   
    25    15    16 1   
    26    15    32 1   
    27    15    33 1   
    28    16    17 1   
    29    16    18 1   
    30    19    20 ar  
    31    19    24 ar  
    32    20    21 ar  
    33    20    34 1   
    34    21    22 ar  
    35    21    35 1   
    36    22    23 ar  
    37    22    36 1   
    38    23    24 ar  
    39    23    37 1   
    40    24    38 1   
@<TRIPOS>SUBSTRUCTURE
     1 WKI         1 TEMP              0 ****  ****    0 ROOT
