@<TRIPOS>MOLECULE
WKJ
   28    29     1     0     0
SMALL
abcg2


@<TRIPOS>ATOM
      1 C10        -27.5980    -8.0820   -19.9350 ca         1 WKJ       0.120000
      2 C13        -29.7660    -7.4250   -19.1690 ca         1 WKJ      -0.092000
      3 C02        -34.4920    -6.0960   -19.7940 c5         1 WKJ       0.163300
      4 C03        -33.6930    -5.6280   -21.0140 c5         1 WKJ      -0.083400
      5 C04        -32.4780    -6.5670   -21.0730 c5         1 WKJ       0.161800
      6 C06        -31.8510    -8.6250   -19.9280 c3         1 WKJ       0.223100
      7 C07        -30.3590    -8.4140   -19.9500 ca         1 WKJ      -0.085300
      8 C08        -29.5400    -9.2260   -20.7270 ca         1 WKJ      -0.092000
      9 C09        -28.1600    -9.0720   -20.7230 ca         1 WKJ      -0.106500
     10 C12        -28.3910    -7.2510   -19.1560 ca         1 WKJ      -0.106500
     11 C14        -33.9950    -7.5260   -19.6010 c5         1 WKJ       0.126800
     12 N05        -32.5810    -7.3860   -19.8700 n3         1 WKJ      -0.731600
     13 CL1        -25.8750    -7.8710   -19.9250 cl         1 WKJ      -0.208000
     14 H1         -30.3910    -6.7750   -18.5700 ha         1 WKJ       0.123500
     15 H2         -34.1920    -5.5090   -18.9160 h1         1 WKJ       0.043700
     16 H3         -33.4080    -4.5780   -20.9410 hc         1 WKJ       0.059200
     17 H4         -34.3060    -5.7380   -21.9100 hc         1 WKJ       0.059200
     18 H5         -32.5150    -7.1860   -21.9820 h1         1 WKJ       0.042700
     19 H6         -31.5280    -6.0280   -21.0940 h1         1 WKJ       0.042700
     20 H7         -32.1430    -9.2350   -20.7990 h1         1 WKJ       0.040200
     21 H8         -32.1070    -9.2150   -19.0420 h1         1 WKJ       0.040200
     22 H9         -29.9800    -9.9950   -21.3500 ha         1 WKJ       0.123500
     23 H10        -27.5370    -9.7110   -21.3330 ha         1 WKJ       0.128500
     24 H11        -27.9430    -6.4770   -18.5480 ha         1 WKJ       0.128500
     25 H12        -34.1680    -7.9130   -18.5940 h1         1 WKJ       0.042700
     26 H13        -34.5070    -8.1940   -20.3150 h1         1 WKJ       0.042700
     27 O01        -35.8730    -5.9730   -20.0270 oh         1 WKJ      -0.652000
     28 H15        -36.3370    -6.2020   -19.2160 ho         1 WKJ       0.444000
@<TRIPOS>BOND
     1     1     9 ar  
     2     1    10 ar  
     3     1    13 1   
     4     2     7 ar  
     5     2    10 ar  
     6     2    14 1   
     7     3     4 1   
     8     3    11 1   
     9     3    15 1   
    10     3    27 1   
    11     4     5 1   
    12     4    16 1   
    13     4    17 1   
    14     5    12 1   
    15     5    18 1   
    16     5    19 1   
    17     6     7 1   
    18     6    12 1   
    19     6    20 1   
    20     6    21 1   
    21     7     8 ar  
    22     8     9 ar  
    23     8    22 1   
    24     9    23 1   
    25    10    24 1   
    26    11    12 1   
    27    11    25 1   
    28    11    26 1   
    29    27    28 1   
@<TRIPOS>SUBSTRUCTURE
     1 WKJ         1 TEMP              0 ****  ****    0 ROOT
