@<TRIPOS>MOLECULE
WKJ
   28    29     1     0     0
SMALL
No Charge or Current Charge


@<TRIPOS>ATOM
      1 C10        -27.5610    -8.0230   -20.1570 ca         1 WKJ       0.120000
      2 C13        -29.5580    -7.6260   -18.8240 ca         1 WKJ      -0.092000
      3 C02        -34.6420    -6.1020   -20.0500 c5         1 WKJ       0.163300
      4 C03        -33.4760    -5.5520   -20.9310 c5         1 WKJ      -0.083400
      5 C04        -32.5500    -6.7780   -21.1000 c5         1 WKJ       0.161800
      6 C06        -31.8210    -8.5680   -19.5030 c3         1 WKJ       0.223100
      7 C07        -30.3250    -8.3810   -19.7350 ca         1 WKJ      -0.085300
      8 C08        -29.6980    -8.9540   -20.8600 ca         1 WKJ      -0.092000
      9 C09        -28.3180    -8.7750   -21.0690 ca         1 WKJ      -0.106500
     10 C12        -28.1790    -7.4480   -19.0340 ca         1 WKJ      -0.106500
     11 C14        -34.0530    -7.4380   -19.4680 c5         1 WKJ       0.126800
     12 N05        -32.5980    -7.3300   -19.7310 n3         1 WKJ      -0.731600
     13 Cl1        -25.8370    -7.7990   -20.4200 cl         1 WKJ      -0.208000
     14 H1         -30.0350    -7.1750   -17.9560 ha         1 WKJ       0.123500
     15 H2         -34.8510    -5.3920   -19.2370 h1         1 WKJ       0.043700
     16 H3         -32.9510    -4.7420   -20.4130 hc         1 WKJ       0.059200
     17 H4         -33.8140    -5.1520   -21.8940 hc         1 WKJ       0.059200
     18 H5         -32.9450    -7.4880   -21.8410 h1         1 WKJ       0.042700
     19 H6         -31.5350    -6.4870   -21.4060 h1         1 WKJ       0.042700
     20 H7         -32.1900    -9.3690   -20.1590 h1         1 WKJ       0.040200
     21 H8         -31.9680    -8.9100   -18.4700 h1         1 WKJ       0.040200
     22 H9         -30.2780    -9.5360   -21.5720 ha         1 WKJ       0.123500
     23 H10        -27.8370    -9.2180   -21.9380 ha         1 WKJ       0.128500
     24 H11        -27.5910    -6.8650   -18.3300 ha         1 WKJ       0.128500
     25 H12        -34.2670    -7.5430   -18.3960 h1         1 WKJ       0.042700
     26 H13        -34.4810    -8.3110   -19.9830 h1         1 WKJ       0.042700
     27 O01        -35.8270    -6.3180   -20.8240 oh         1 WKJ      -0.652000
     28 H15        -36.5250    -6.6170   -20.2000 ho         1 WKJ       0.444000
@<TRIPOS>BOND
     1     1     9 ar  
     2     1    10 ar  
     3     1    13 1   
     4     2     7 ar  
     5     2    10 ar  
     6     2    14 1   
     7     3     4 1   
     8     3    11 1   
     9     3    15 1   
    10     3    27 1   
    11     4     5 1   
    12     4    16 1   
    13     4    17 1   
    14     5    12 1   
    15     5    18 1   
    16     5    19 1   
    17     6     7 1   
    18     6    12 1   
    19     6    20 1   
    20     6    21 1   
    21     7     8 ar  
    22     8     9 ar  
    23     8    22 1   
    24     9    23 1   
    25    10    24 1   
    26    11    12 1   
    27    11    25 1   
    28    11    26 1   
    29    27    28 1   
@<TRIPOS>SUBSTRUCTURE
     1 WKJ         1 TEMP              0 ****  ****    0 ROOT
