@<TRIPOS>MOLECULE
WKL
   25    25     1     0     0
SMALL
abcg2


@<TRIPOS>ATOM
      1 N1           1.3070    12.6680   -35.3380 n8         1 WKL      -1.007200
      2 C7          -1.8040    12.7340   -35.8500 c3         1 WKL       0.179100
      3 C8          -1.5200    11.4700   -36.5380 c1         1 WKL       0.301900
      4 N2          -1.3110    10.4770   -37.0780 n1         1 WKL      -0.458000
      5 C1          -0.1060    15.8590   -38.7650 cc         1 WKL      -0.100000
      6 C5          -0.1330    14.5930   -35.8970 c3         1 WKL       0.115000
      7 C6           1.2290    13.9320   -36.0750 c3         1 WKL       0.128800
      8 C4          -1.8720    14.2530   -37.6920 c          1 WKL       0.636700
      9 C3          -1.3570    17.2620   -40.1170 cd         1 WKL      -0.246000
     10 C2          -1.3690    15.3870   -38.4980 cd         1 WKL      -0.283600
     11 N           -1.2370    13.8830   -36.5460 n          1 WKL      -0.400800
     12 O           -2.8870    13.6510   -38.0640 o          1 WKL      -0.597100
     13 S           -2.5540    16.2590   -39.4160 ss         1 WKL       0.300000
     14 C           -0.1000    16.9300   -39.6930 cc         1 WKL      -0.144000
     15 H1           2.1610    12.1770   -35.5780 hn         1 WKL       0.400000
     16 H2           1.3500    12.8500   -34.3400 hn         1 WKL       0.400000
     17 H4          -1.3740    12.6810   -34.8540 h1         1 WKL       0.080200
     18 H5          -2.8870    12.8330   -35.7660 h1         1 WKL       0.080200
     19 H6           0.7970    15.4430   -38.3470 ha         1 WKL       0.132000
     20 H7          -0.1110    15.6090   -36.2790 h1         1 WKL       0.054700
     21 H8          -0.3680    14.6590   -34.8320 h1         1 WKL       0.054700
     22 H9           1.9900    14.6620   -35.7680 h1         1 WKL       0.040700
     23 H10          1.3930    13.7160   -37.1320 h1         1 WKL       0.040700
     24 H11         -1.6420    18.0430   -40.8040 h4         1 WKL       0.153000
     25 H12          0.7980    17.4290   -40.0290 ha         1 WKL       0.136000
@<TRIPOS>BOND
     1     1     7 1   
     2     1    15 1   
     3     1    16 1   
     4     2     3 1   
     5     2    11 1   
     6     2    17 1   
     7     2    18 1   
     8     3     4 3   
     9     5    10 2   
    10     5    14 1   
    11     5    19 1   
    12     6     7 1   
    13     6    11 1   
    14     6    20 1   
    15     6    21 1   
    16     7    22 1   
    17     7    23 1   
    18     8    10 1   
    19     8    11 1   
    20     8    12 2   
    21     9    13 1   
    22     9    14 2   
    23     9    24 1   
    24    10    13 1   
    25    14    25 1   
@<TRIPOS>SUBSTRUCTURE
     1 WKL         1 TEMP              0 ****  ****    0 ROOT
