@<TRIPOS>MOLECULE
WKL
   25    25     1     0     0
SMALL
No Charge or Current Charge


@<TRIPOS>ATOM
      1 N1           1.4630    12.7100   -35.2650 n8         1 WKL      -1.007200
      2 C7          -1.7410    12.5970   -35.8990 c3         1 WKL       0.179100
      3 C8          -1.5750    11.3590   -36.6800 c1         1 WKL       0.301900
      4 N2          -1.4730    10.3790   -37.3060 n1         1 WKL      -0.458000
      5 C1          -0.2180    15.8570   -38.7250 cc         1 WKL      -0.100000
      6 C5          -0.1650    14.5710   -35.8970 c3         1 WKL       0.115000
      7 C6           1.2550    13.9510   -36.0560 c3         1 WKL       0.128800
      8 C4          -2.0560    14.3880   -37.6210 c          1 WKL       0.636700
      9 C3          -1.2660    17.2740   -40.2510 cd         1 WKL      -0.246000
     10 C2          -1.5240    15.4670   -38.5070 cd         1 WKL      -0.283600
     11 N           -1.2540    13.8280   -36.5890 n          1 WKL      -0.400800
     12 O           -3.1980    13.9790   -37.7890 o          1 WKL      -0.597100
     13 S           -2.6240    16.3520   -39.5850 ss         1 WKL       0.300000
     14 C           -0.0810    16.8780   -39.6950 cc         1 WKL      -0.144000
     15 H1           2.4220    12.3720   -35.4170 hn         1 WKL       0.400000
     16 H2           1.4510    12.9410   -34.2630 hn         1 WKL       0.400000
     17 H4          -1.2140    12.4650   -34.9470 h1         1 WKL       0.080200
     18 H5          -2.8040    12.7100   -35.6540 h1         1 WKL       0.080200
     19 H6           0.6600    15.4300   -38.2590 ha         1 WKL       0.132000
     20 H7          -0.1510    15.6150   -36.2280 h1         1 WKL       0.054700
     21 H8          -0.4030    14.6180   -34.8260 h1         1 WKL       0.054700
     22 H9           2.0040    14.6890   -35.7370 h1         1 WKL       0.040700
     23 H10          1.4370    13.7180   -37.1140 h1         1 WKL       0.040700
     24 H11         -1.4380    18.0250   -41.0130 h4         1 WKL       0.153000
     25 H12          0.8870    17.2870   -39.9720 ha         1 WKL       0.136000
@<TRIPOS>BOND
     1     1     7 1   
     2     1    15 1   
     3     1    16 1   
     4     2     3 1   
     5     2    11 1   
     6     2    17 1   
     7     2    18 1   
     8     3     4 3   
     9     5    10 2   
    10     5    14 1   
    11     5    19 1   
    12     6     7 1   
    13     6    11 1   
    14     6    20 1   
    15     6    21 1   
    16     7    22 1   
    17     7    23 1   
    18     8    10 1   
    19     8    11 1   
    20     8    12 2   
    21     9    13 1   
    22     9    14 2   
    23     9    24 1   
    24    10    13 1   
    25    14    25 1   
@<TRIPOS>SUBSTRUCTURE
     1 WKL         1 TEMP              0 ****  ****    0 ROOT
