@<TRIPOS>MOLECULE
WKM
   31    31     1     0     0
SMALL
bcc


@<TRIPOS>ATOM
      1 C10        -13.0830    10.6150     4.5840 c6         1 WKM       0.111900
      2 C13        -13.8970    13.0520     5.7220 c6         1 WKM       0.061500
      3 C02        -16.9380    13.5060     4.4190 c3         1 WKM      -0.046700
      4 C03        -18.1080    14.3680     4.8830 c3         1 WKM      -0.088600
      5 C04        -15.7900    14.3930     3.8790 c3         1 WKM       0.098500
      6 C06        -14.6480    13.5190     3.3660 c          1 WKM       0.671100
      7 C09        -12.8600    11.9330     3.8630 c6         1 WKM       0.061500
      8 C12        -14.0870    11.7000     6.3890 c6         1 WKM       0.111900
      9 N05        -16.2690    15.2270     2.7930 n8         1 WKM      -0.870800
     10 N08        -13.8750    12.8860     4.2790 n          1 WKM      -0.488800
     11 O07        -14.4610    13.3810     2.1650 o          1 WKM      -0.584100
     12 O11        -13.0970    10.7820     5.9850 os         1 WKM      -0.398600
     13 H1         -14.0280    10.1700     4.2390 h1         1 WKM       0.053700
     14 H2         -12.2780     9.9190     4.3470 h1         1 WKM       0.053700
     15 H3         -12.9430    13.4880     6.0400 h1         1 WKM       0.062200
     16 H4         -14.6790    13.7320     6.0450 h1         1 WKM       0.062200
     17 H5         -18.2830    11.9440     3.7730 hc         1 WKM       0.039033
     18 H6         -17.6450    12.9250     2.4530 hc         1 WKM       0.039033
     19 H7         -16.6330    11.7020     3.2290 hc         1 WKM       0.039033
     20 H8         -16.5630    12.9760     5.2990 hc         1 WKM       0.035700
     21 H9         -17.7870    15.1490     5.5750 hc         1 WKM       0.039033
     22 H10        -18.6140    14.8470     4.0430 hc         1 WKM       0.039033
     23 H11        -18.8480    13.7540     5.3980 hc         1 WKM       0.039033
     24 H12        -15.4180    14.9960     4.7190 h1         1 WKM       0.021700
     25 H13        -12.9080    11.7810     2.7880 h1         1 WKM       0.062200
     26 H14        -11.8670    12.3290     4.1030 h1         1 WKM       0.062200
     27 H15        -14.0120    11.8060     7.4720 h1         1 WKM       0.053700
     28 H16        -15.0900    11.3160     6.1530 h1         1 WKM       0.053700
     29 H17        -16.8090    15.9880     3.1820 hn         1 WKM       0.347800
     30 H18        -15.4900    15.6590     2.3140 hn         1 WKM       0.347800
     31 C01        -17.3960    12.4620     3.4070 c3         1 WKM      -0.088600
@<TRIPOS>BOND
     1     1     7 1   
     2     1    12 1   
     3     1    13 1   
     4     1    14 1   
     5     2     8 1   
     6     2    10 1   
     7     2    15 1   
     8     2    16 1   
     9     3     4 1   
    10     3     5 1   
    11     3    20 1   
    12     3    31 1   
    13     4    21 1   
    14     4    22 1   
    15     4    23 1   
    16     5     6 1   
    17     5     9 1   
    18     5    24 1   
    19     6    10 1   
    20     6    11 2   
    21     7    10 1   
    22     7    25 1   
    23     7    26 1   
    24     8    12 1   
    25     8    27 1   
    26     8    28 1   
    27     9    29 1   
    28     9    30 1   
    29    17    31 1   
    30    18    31 1   
    31    19    31 1   
@<TRIPOS>SUBSTRUCTURE
     1 WKM         1 TEMP              0 ****  ****    0 ROOT
