@<TRIPOS>MOLECULE
WKM
   31    31     1     0     0
SMALL
No Charge or Current Charge


@<TRIPOS>ATOM
      1 C10        -12.6440    10.4990     4.9160 c6         1 WKM       0.135100
      2 C13        -14.0370    12.9170     5.7300 c6         1 WKM       0.061500
      3 C02        -17.1330    13.5360     4.1460 c3         1 WKM      -0.046700
      4 C03        -18.1630    14.3900     4.9260 c3         1 WKM      -0.088600
      5 C04        -15.8560    14.3490     3.7510 c3         1 WKM       0.098500
      6 C06        -14.6690    13.3900     3.3130 c          1 WKM       0.604100
      7 C09        -13.0240    11.5600     3.8520 c6         1 WKM       0.061500
      8 C12        -13.5940    11.7830     6.6910 c6         1 WKM       0.135100
      9 N05        -16.1980    15.4630     2.7960 n8         1 WKM      -0.981200
     10 N08        -14.0880    12.5260     4.2800 n          1 WKM      -0.421800
     11 O07        -14.2830    13.3480     2.1480 o          1 WKM      -0.584100
     12 O11        -12.4170    11.1250     6.1910 os         1 WKM      -0.445000
     13 H1         -13.4530     9.7600     5.0140 h1         1 WKM       0.053700
     14 H2         -11.7340     9.9670     4.6050 h1         1 WKM       0.053700
     15 H3         -13.3360    13.7580     5.8370 h1         1 WKM       0.062200
     16 H4         -15.0170    13.2730     6.0700 h1         1 WKM       0.062200
     17 H5         -18.6320    12.1940     3.2820 hc         1 WKM       0.039033
     18 H6         -18.1790    13.5340     2.2120 hc         1 WKM       0.039033
     19 H7         -17.0750    12.1590     2.4370 hc         1 WKM       0.039033
     20 H8         -16.8180    12.7450     4.8360 hc         1 WKM       0.035700
     21 H9         -17.6930    14.8670     5.7940 hc         1 WKM       0.039033
     22 H10        -18.5930    15.1750     4.2910 hc         1 WKM       0.039033
     23 H11        -18.9850    13.7630     5.2910 hc         1 WKM       0.039033
     24 H12        -15.5020    14.8560     4.6570 h1         1 WKM       0.021700
     25 H13        -13.3510    11.0360     2.9430 h1         1 WKM       0.062200
     26 H14        -12.1210    12.1290     3.5880 h1         1 WKM       0.062200
     27 H15        -13.3830    12.1970     7.6870 h1         1 WKM       0.053700
     28 H16        -14.4030    11.0450     6.7950 h1         1 WKM       0.053700
     29 H17        -16.8620    16.1030     3.2460 hn         1 WKM       0.403000
     30 H18        -15.3660    16.0430     2.6370 hn         1 WKM       0.403000
     31 C01        -17.7930    12.8150     2.9440 c3         1 WKM      -0.088600
@<TRIPOS>BOND
     1     1     7 1   
     2     1    12 1   
     3     1    13 1   
     4     1    14 1   
     5     2     8 1   
     6     2    10 1   
     7     2    15 1   
     8     2    16 1   
     9     3     4 1   
    10     3     5 1   
    11     3    20 1   
    12     3    31 1   
    13     4    21 1   
    14     4    22 1   
    15     4    23 1   
    16     5     6 1   
    17     5     9 1   
    18     5    24 1   
    19     6    10 1   
    20     6    11 2   
    21     7    10 1   
    22     7    25 1   
    23     7    26 1   
    24     8    12 1   
    25     8    27 1   
    26     8    28 1   
    27     9    29 1   
    28     9    30 1   
    29    17    31 1   
    30    18    31 1   
    31    19    31 1   
@<TRIPOS>SUBSTRUCTURE
     1 WKM         1 TEMP              0 ****  ****    0 ROOT
