@<TRIPOS>MOLECULE
WKN
   37    39     1     0     0
SMALL
No Charge or Current Charge


@<TRIPOS>ATOM
      1 C10          6.5540     7.8220    19.3370 ca         1 WKN      -0.056300
      2 C11          5.1630     7.6610    19.4670 ca         1 WKN      -0.148000
      3 C13          2.2060     4.6600    18.3240 ca         1 WKN      -0.091000
      4 C15          0.3640     6.1990    18.7410 ca         1 WKN      -0.091000
      5 C16          1.1590     6.8980    19.6670 ca         1 WKN      -0.136000
      6 C17          2.4790     6.4870    19.9160 ca         1 WKN       0.115100
      7 C19          7.1580     8.1280    17.9720 c3         1 WKN      -0.061400
      8 C20          4.8070     6.9010    23.2190 c3         1 WKN      -0.036800
      9 C1           6.9090     7.0380    16.9640 cc         1 WKN       0.286300
     10 C2           7.3120     5.7080    17.1720 cc         1 WKN      -0.306000
     11 C3           6.9200     5.0200    16.0770 cd         1 WKN       0.074100
     12 N4           6.2980     5.9470    15.2450 na         1 WKN      -0.032200
     13 N5           6.2920     7.2280    15.8090 nd         1 WKN      -0.518800
     14 C6           4.5940     7.3490    20.7170 ca         1 WKN       0.116100
     15 C7           5.4130     7.2260    21.8580 ca         1 WKN      -0.089300
     16 C8           6.8060     7.3940    21.7260 ca         1 WKN      -0.092000
     17 C9           7.3720     7.6850    20.4730 ca         1 WKN      -0.126000
     18 C12          3.0000     5.3590    19.2500 ca         1 WKN      -0.136000
     19 C14          0.8890     5.0820    18.0680 ca         1 WKN      -0.128000
     20 O18          3.2300     7.1860    20.8350 os         1 WKN      -0.261200
     21 O21          7.0670     3.7140    15.7880 oh         1 WKN      -0.529100
     22 H111         4.5240     7.7720    18.5940 ha         1 WKN       0.135000
     23 H151        -0.6570     6.5220    18.5460 ha         1 WKN       0.113500
     24 H161         0.7540     7.7620    20.1890 ha         1 WKN       0.127500
     25 H191         8.2400     8.2860    18.0570 hc         1 WKN       0.066700
     26 H192         6.7490     9.0750    17.5990 hc         1 WKN       0.066700
     27 H201         4.2730     5.9440    23.1920 hc         1 WKN       0.045033
     28 H203         5.5720     6.8310    24.0010 hc         1 WKN       0.045033
     29 H202         4.0930     7.6750    23.5240 hc         1 WKN       0.045033
     30 H21          7.8290     5.3350    18.0490 ha         1 WKN       0.148000
     31 H1           5.8880     5.7520    14.3330 hn         1 WKN       0.381000
     32 H81          7.4530     7.2950    22.5950 ha         1 WKN       0.114000
     33 H91          8.4500     7.8060    20.3890 ha         1 WKN       0.114000
     34 H121         4.0140     5.0200    19.4510 ha         1 WKN       0.127500
     35 H141         0.2750     4.5400    17.3520 ha         1 WKN       0.115000
     36 H211         7.5400     3.3030    16.5460 ho         1 WKN       0.489000
     37 H131         2.6100     3.7910    17.8070 ha         1 WKN       0.113500
@<TRIPOS>BOND
     1     1     2 ar  
     2     1     7 1   
     3     1    17 ar  
     4     2    14 ar  
     5     2    22 1   
     6     3    18 ar  
     7     3    19 ar  
     8     3    37 1   
     9     4     5 ar  
    10     4    19 ar  
    11     4    23 1   
    12     5     6 ar  
    13     5    24 1   
    14     6    18 ar  
    15     6    20 1   
    16     7     9 1   
    17     7    25 1   
    18     7    26 1   
    19     8    15 1   
    20     8    27 1   
    21     8    28 1   
    22     8    29 1   
    23     9    10 1   
    24     9    13 2   
    25    10    11 2   
    26    10    30 1   
    27    11    12 1   
    28    11    21 1   
    29    12    13 1   
    30    12    31 1   
    31    14    15 ar  
    32    14    20 1   
    33    15    16 ar  
    34    16    17 ar  
    35    16    32 1   
    36    17    33 1   
    37    18    34 1   
    38    19    35 1   
    39    21    36 1   
@<TRIPOS>SUBSTRUCTURE
     1 WKN         1 TEMP              0 ****  ****    0 ROOT
