@<TRIPOS>MOLECULE
WKN
   37    39     1     0     0
SMALL
abcg2


@<TRIPOS>ATOM
      1 C10          6.6560     7.7880    19.4490 ca         1 WKN      -0.056300
      2 C11          5.2890     7.5300    19.5230 ca         1 WKN      -0.148000
      3 C13          2.5060     4.4990    18.3420 ca         1 WKN      -0.091000
      4 C15          0.7100     6.0910    18.5060 ca         1 WKN      -0.091000
      5 C16          1.4250     6.8050    19.4610 ca         1 WKN      -0.136000
      6 C17          2.6800     6.3560    19.8530 ca         1 WKN       0.115100
      7 C19          7.3140     7.9920    18.0990 c3         1 WKN      -0.061400
      8 C20          4.7170     7.1220    23.2650 c3         1 WKN      -0.036800
      9 C1           6.8680     6.9850    17.0850 cc         1 WKN       0.286300
     10 C2           7.0410     5.5810    17.1350 cc         1 WKN      -0.306000
     11 C3           6.4020     5.1200    16.0010 cd         1 WKN       0.074100
     12 N4           5.9050     6.1910    15.3530 na         1 WKN      -0.032200
     13 N5           6.1800     7.3550    16.0090 nd         1 WKN      -0.518800
     14 C6           4.6810     7.3080    20.7490 ca         1 WKN       0.116100
     15 C7           5.3970     7.3650    21.9490 ca         1 WKN      -0.089300
     16 C8           6.7580     7.6470    21.8580 ca         1 WKN      -0.092000
     17 C9           7.3880     7.8450    20.6320 ca         1 WKN      -0.126000
     18 C12          3.2250     5.1980    19.3030 ca         1 WKN      -0.136000
     19 C14          1.2480     4.9400    17.9380 ca         1 WKN      -0.128000
     20 O18          3.3240     7.0640    20.8480 os         1 WKN      -0.261200
     21 O21          6.2120     3.8950    15.4790 oh         1 WKN      -0.529100
     22 H111         4.7020     7.4770    18.6160 ha         1 WKN       0.135000
     23 H151        -0.2680     6.4420    18.2010 ha         1 WKN       0.113500
     24 H161         1.0240     7.7070    19.9050 ha         1 WKN       0.127500
     25 H191         8.3980     7.9440    18.2240 hc         1 WKN       0.066700
     26 H192         7.0790     8.9880    17.7160 hc         1 WKN       0.066700
     27 H201         4.2100     6.1540    23.2730 hc         1 WKN       0.045033
     28 H203         5.4420     7.1400    24.0790 hc         1 WKN       0.045033
     29 H202         3.9550     7.8790    23.4660 hc         1 WKN       0.045033
     30 H21          7.5400     4.9950    17.8870 ha         1 WKN       0.148000
     31 H1           5.3820     6.1950    14.4920 hn         1 WKN       0.381000
     32 H81          7.3410     7.6910    22.7710 ha         1 WKN       0.114000
     33 H91          8.4530     8.0380    20.5970 ha         1 WKN       0.114000
     34 H121         4.2020     4.8560    19.6160 ha         1 WKN       0.127500
     35 H141         0.6920     4.3900    17.1900 ha         1 WKN       0.115000
     36 H211         6.5880     3.2270    16.0680 ho         1 WKN       0.489000
     37 H131         2.9320     3.6020    17.9100 ha         1 WKN       0.113500
@<TRIPOS>BOND
     1     1     2 ar  
     2     1     7 1   
     3     1    17 ar  
     4     2    14 ar  
     5     2    22 1   
     6     3    18 ar  
     7     3    19 ar  
     8     3    37 1   
     9     4     5 ar  
    10     4    19 ar  
    11     4    23 1   
    12     5     6 ar  
    13     5    24 1   
    14     6    18 ar  
    15     6    20 1   
    16     7     9 1   
    17     7    25 1   
    18     7    26 1   
    19     8    15 1   
    20     8    27 1   
    21     8    28 1   
    22     8    29 1   
    23     9    10 1   
    24     9    13 2   
    25    10    11 2   
    26    10    30 1   
    27    11    12 1   
    28    11    21 1   
    29    12    13 1   
    30    12    31 1   
    31    14    15 ar  
    32    14    20 1   
    33    15    16 ar  
    34    16    17 ar  
    35    16    32 1   
    36    17    33 1   
    37    18    34 1   
    38    19    35 1   
    39    21    36 1   
@<TRIPOS>SUBSTRUCTURE
     1 WKN         1 TEMP              0 ****  ****    0 ROOT
