@<TRIPOS>MOLECULE
WKP
   33    34     1     0     0
SMALL
bcc


@<TRIPOS>ATOM
      1 C13        -32.6000    21.2060     2.0940 c6         1 WKP       0.161300
      2 C15        -34.8710    21.3480     2.9950 c6         1 WKP       0.161300
      3 C01        -35.0660    22.5610    -6.6990 c3         1 WKP       0.124700
      4 C03        -34.5130    22.7730    -4.4020 ca         1 WKP       0.171100
      5 C04        -33.5810    23.1780    -3.4410 ca         1 WKP      -0.209500
      6 C05        -33.8510    23.0120    -2.0990 ca         1 WKP      -0.043000
      7 C06        -35.0530    22.4420    -1.6650 ca         1 WKP      -0.218600
      8 C07        -35.9730    22.0470    -2.6370 ca         1 WKP      -0.043000
      9 C08        -35.7180    22.2030    -3.9880 ca         1 WKP      -0.209500
     10 C09        -35.3930    22.2570    -0.2320 c          1 WKP       0.590700
     11 C11        -34.3190    22.5040     0.8060 c6         1 WKP      -0.156700
     12 C12        -33.3080    21.3310     0.7510 c6         1 WKP      -0.084900
     13 C16        -34.8770    22.6610     2.2290 c6         1 WKP      -0.084900
     14 N14        -33.4990    20.8840     3.1980 n7         1 WKP      -0.810200
     15 O10        -36.5040    21.8770     0.0880 o          1 WKP      -0.532100
     16 H1         -31.8290    20.4370     2.0400 h1         1 WKP       0.042950
     17 H2         -32.0760    22.1470     2.3000 h1         1 WKP       0.042950
     18 H3         -35.3490    21.4910     3.9690 h1         1 WKP       0.042950
     19 H4         -35.4880    20.6190     2.4540 h1         1 WKP       0.042950
     20 H5         -34.5820    22.7920    -7.6440 h1         1 WKP       0.044367
     21 H6         -35.2660    21.4880    -6.6570 h1         1 WKP       0.044367
     22 H7         -36.0130    23.1020    -6.6440 h1         1 WKP       0.044367
     23 H8         -32.6480    23.6240    -3.7600 ha         1 WKP       0.144000
     24 H9         -33.1050    23.3400    -1.3880 ha         1 WKP       0.142000
     25 H10        -36.9120    21.6040    -2.3340 ha         1 WKP       0.142000
     26 H11        -36.4640    21.8800    -4.7020 ha         1 WKP       0.144000
     27 H12        -33.7880    23.4230     0.5440 hc         1 WKP       0.063700
     28 H13        -33.8170    20.3890     0.5260 hc         1 WKP       0.052200
     29 H14        -32.5790    21.4850    -0.0460 hc         1 WKP       0.052200
     30 H15        -34.2660    23.3880     2.7690 hc         1 WKP       0.052200
     31 H16        -35.8880    23.0690     2.2080 hc         1 WKP       0.052200
     32 H17        -33.5100    19.8830     3.3330 hn         1 WKP       0.350800
     33 O02        -34.1690    22.9670    -5.6800 os         1 WKP      -0.314900
@<TRIPOS>BOND
     1     1    12 1   
     2     1    14 1   
     3     1    16 1   
     4     1    17 1   
     5     2    13 1   
     6     2    14 1   
     7     2    18 1   
     8     2    19 1   
     9     3    20 1   
    10     3    21 1   
    11     3    22 1   
    12     3    33 1   
    13     4     5 ar  
    14     4     9 ar  
    15     4    33 1   
    16     5     6 ar  
    17     5    23 1   
    18     6     7 ar  
    19     6    24 1   
    20     7     8 ar  
    21     7    10 1   
    22     8     9 ar  
    23     8    25 1   
    24     9    26 1   
    25    10    11 1   
    26    10    15 2   
    27    11    12 1   
    28    11    13 1   
    29    11    27 1   
    30    12    28 1   
    31    12    29 1   
    32    13    30 1   
    33    13    31 1   
    34    14    32 1   
@<TRIPOS>SUBSTRUCTURE
     1 WKP         1 TEMP              0 ****  ****    0 ROOT
