@<TRIPOS>MOLECULE
WKP
   33    34     1     0     0
SMALL
No Charge or Current Charge


@<TRIPOS>ATOM
      1 C13        -32.5650    21.4310     2.5800 c6         1 WKP       0.161300
      2 C15        -35.0270    21.6790     3.0810 c6         1 WKP       0.161300
      3 C01        -35.3940    23.2380    -6.8070 c3         1 WKP       0.147900
      4 C03        -34.5510    22.7770    -4.5340 ca         1 WKP       0.171100
      5 C04        -33.4550    22.7650    -3.6600 ca         1 WKP      -0.191500
      6 C05        -33.6060    22.3540    -2.3250 ca         1 WKP      -0.025000
      7 C06        -34.8730    21.9530    -1.8420 ca         1 WKP      -0.218600
      8 C07        -35.9700    21.9530    -2.7290 ca         1 WKP      -0.025000
      9 C08        -35.8140    22.3660    -4.0640 ca         1 WKP      -0.191500
     10 C09        -35.0790    21.4940    -0.4150 c          1 WKP       0.590700
     11 C11        -34.1840    22.0820     0.7060 c6         1 WKP      -0.156700
     12 C12        -33.0390    21.1160     1.1400 c6         1 WKP      -0.084900
     13 C16        -34.9800    22.6840     1.9040 c6         1 WKP      -0.084900
     14 N14        -33.6670    21.3190     3.5810 n7         1 WKP      -0.865400
     15 O10        -35.9310    20.6550    -0.1470 o          1 WKP      -0.532100
     16 H1         -31.7370    20.7630     2.8630 h1         1 WKP       0.042950
     17 H2         -32.1710    22.4580     2.5980 h1         1 WKP       0.042950
     18 H3         -35.6270    22.0880     3.9070 h1         1 WKP       0.042950
     19 H4         -35.5340    20.7650     2.7350 h1         1 WKP       0.042950
     20 H5         -35.0080    23.5950    -7.7700 h1         1 WKP       0.044367
     21 H6         -35.8260    22.2410    -6.9630 h1         1 WKP       0.044367
     22 H7         -36.1900    23.9210    -6.4860 h1         1 WKP       0.044367
     23 H8         -32.4770    23.0720    -4.0220 ha         1 WKP       0.126000
     24 H9         -32.7280    22.3380    -1.6830 ha         1 WKP       0.124000
     25 H10        -36.9540    21.6390    -2.3830 ha         1 WKP       0.124000
     26 H11        -36.6840    22.3580    -4.7150 ha         1 WKP       0.126000
     27 H12        -33.6760    22.9410     0.2490 hc         1 WKP       0.063700
     28 H13        -33.3910    20.0750     1.1030 hc         1 WKP       0.052200
     29 H14        -32.1940    21.1800     0.4400 hc         1 WKP       0.052200
     30 H15        -34.5020    23.6120     2.2470 hc         1 WKP       0.052200
     31 H16        -35.9980    22.9590     1.5970 hc         1 WKP       0.052200
     32 H17        -33.7060    20.3530     3.9330 hn         1 WKP       0.406000
     33 O02        -34.3360    23.1900    -5.8330 os         1 WKP      -0.338100
@<TRIPOS>BOND
     1     1    12 1   
     2     1    14 1   
     3     1    16 1   
     4     1    17 1   
     5     2    13 1   
     6     2    14 1   
     7     2    18 1   
     8     2    19 1   
     9     3    20 1   
    10     3    21 1   
    11     3    22 1   
    12     3    33 1   
    13     4     5 ar  
    14     4     9 ar  
    15     4    33 1   
    16     5     6 ar  
    17     5    23 1   
    18     6     7 ar  
    19     6    24 1   
    20     7     8 ar  
    21     7    10 1   
    22     8     9 ar  
    23     8    25 1   
    24     9    26 1   
    25    10    11 1   
    26    10    15 2   
    27    11    12 1   
    28    11    13 1   
    29    11    27 1   
    30    12    28 1   
    31    12    29 1   
    32    13    30 1   
    33    13    31 1   
    34    14    32 1   
@<TRIPOS>SUBSTRUCTURE
     1 WKP         1 TEMP              0 ****  ****    0 ROOT
