@<TRIPOS>MOLECULE
WKR
   33    34     1     0     0
SMALL
abcg2


@<TRIPOS>ATOM
      1 C01          4.1090     8.0660    16.1730 cc         1 WKR       0.696800
      2 C02          3.5850     9.3880    15.8020 ca         1 WKR      -0.163900
      3 N03          3.3230     7.2470    16.9410 na         1 WKR      -0.863400
      4 C05          2.5900    10.0270    16.5520 ca         1 WKR      -0.068000
      5 C06          4.1070    10.0240    14.6690 ca         1 WKR      -0.068000
      6 C07          3.8170     6.0480    17.3550 cc         1 WKR       0.648100
      7 C10          3.6320    11.2680    14.2880 ca         1 WKR      -0.115500
      8 C15          1.4530     5.8150    19.1390 c3         1 WKR       0.079000
      9 C16          1.8870     7.0440    19.9360 c3         1 WKR      -0.089433
     10 C17          0.3720     6.1200    18.1030 c3         1 WKR      -0.089433
     11 C18          0.9410     4.7310    20.0980 c3         1 WKR      -0.089433
     12 N04          5.2840     7.6790    15.7750 nd         1 WKR      -0.626100
     13 C08          5.7210     6.4180    16.1180 cs         1 WKR       0.592200
     14 C09          2.1250    11.2770    16.1690 ca         1 WKR      -0.115500
     15 N11          4.9920     5.6320    16.9740 nd         1 WKR      -0.616100
     16 S12          2.9310     4.9520    18.3790 ss         1 WKR      -0.210200
     17 S13          7.1730     5.8520    15.4930 s          1 WKR      -0.418400
     18 C14          2.6400    11.8980    15.0360 ca         1 WKR      -0.080000
     19 H19          2.3710     7.5090    17.1410 hn         1 WKR       0.517000
     20 H20          2.1930     9.5780    17.4520 ha         1 WKR       0.127500
     21 H21          4.8730     9.5260    14.0920 ha         1 WKR       0.127500
     22 H23          4.0340    11.7480    13.4050 ha         1 WKR       0.122500
     23 H25          1.0080     7.4620    20.4320 hc         1 WKR       0.051033
     24 H26          2.6150     6.7690    20.6980 hc         1 WKR       0.051033
     25 H27          2.3210     7.8270    19.3170 hc         1 WKR       0.051033
     26 H28         -0.5210     6.4630    18.6290 hc         1 WKR       0.051033
     27 H30          0.6420     6.9060    17.3970 hc         1 WKR       0.051033
     28 H29          0.1170     5.2270    17.5330 hc         1 WKR       0.051033
     29 H33          0.0600     5.1210    20.6110 hc         1 WKR       0.051033
     30 H32          0.6510     3.8270    19.5610 hc         1 WKR       0.051033
     31 H31          1.6910     4.4740    20.8460 hc         1 WKR       0.051033
     32 H22          1.3630    11.7670    16.7600 ha         1 WKR       0.122500
     33 H24          2.2720    12.8710    14.7380 ha         1 WKR       0.121000
@<TRIPOS>BOND
     1     1     2 1   
     2     1     3 1   
     3     1    12 2   
     4     2     4 ar  
     5     2     5 ar  
     6     3     6 1   
     7     3    19 1   
     8     4    14 ar  
     9     4    20 1   
    10     5     7 ar  
    11     5    21 1   
    12     6    15 2   
    13     6    16 1   
    14     7    18 ar  
    15     7    22 1   
    16     8     9 1   
    17     8    10 1   
    18     8    11 1   
    19     8    16 1   
    20     9    23 1   
    21     9    24 1   
    22     9    25 1   
    23    10    26 1   
    24    10    27 1   
    25    10    28 1   
    26    11    29 1   
    27    11    30 1   
    28    11    31 1   
    29    12    13 1   
    30    13    15 1   
    31    13    17 2   
    32    14    18 ar  
    33    14    32 1   
    34    18    33 1   
@<TRIPOS>SUBSTRUCTURE
     1 WKR         1 TEMP              0 ****  ****    0 ROOT
