@<TRIPOS>MOLECULE
WKR
   33    34     1     0     0
SMALL
No Charge or Current Charge


@<TRIPOS>ATOM
      1 C01          3.7790     8.3260    16.1180 cc         1 WKR       0.696800
      2 C02          3.3100     9.5180    15.3880 ca         1 WKR      -0.163900
      3 N03          2.9050     7.3110    16.4370 na         1 WKR      -0.863400
      4 C05          1.9330     9.8510    15.3260 ca         1 WKR      -0.068000
      5 C06          4.2380    10.3950    14.7760 ca         1 WKR      -0.068000
      6 C07          3.3380     6.3260    17.2770 cc         1 WKR       0.648100
      7 C10          3.8030    11.5470    14.0980 ca         1 WKR      -0.115500
      8 C15          1.6400     5.5750    19.4120 c3         1 WKR       0.079000
      9 C16          2.8480     5.5220    20.3780 c3         1 WKR      -0.089433
     10 C17          1.0300     6.9980    19.3670 c3         1 WKR      -0.089433
     11 C18          0.5670     4.5510    19.8510 c3         1 WKR      -0.089433
     12 N04          5.0420     8.1540    16.4270 nd         1 WKR      -0.626100
     13 C08          5.5580     7.0670    17.1010 cs         1 WKR       0.592200
     14 C09          1.5030    11.0050    14.6470 ca         1 WKR      -0.115500
     15 N11          4.6050     6.1680    17.5180 nd         1 WKR      -0.616100
     16 S12          2.1840     5.0830    17.7070 ss         1 WKR      -0.210200
     17 S13          7.1800     6.8900    17.4310 s          1 WKR      -0.418400
     18 C14          2.4350    11.8520    14.0300 ca         1 WKR      -0.080000
     19 H19          1.9510     7.3330    16.1210 hn         1 WKR       0.517000
     20 H20          1.1820     9.2310    15.8100 ha         1 WKR       0.127500
     21 H21          5.3060    10.1850    14.8130 ha         1 WKR       0.127500
     22 H23          4.5290    12.2060    13.6260 ha         1 WKR       0.122500
     23 H25          2.5270     5.7100    21.4100 hc         1 WKR       0.051033
     24 H26          3.3300     4.5380    20.3460 hc         1 WKR       0.051033
     25 H27          3.5980     6.2790    20.1230 hc         1 WKR       0.051033
     26 H28          0.6240     7.2760    20.3470 hc         1 WKR       0.051033
     27 H30          1.7820     7.7470    19.0950 hc         1 WKR       0.051033
     28 H29          0.2150     7.0500    18.6350 hc         1 WKR       0.051033
     29 H33          0.1940     4.7810    20.8560 hc         1 WKR       0.051033
     30 H32         -0.2860     4.5610    19.1610 hc         1 WKR       0.051033
     31 H31          0.9800     3.5350    19.8650 hc         1 WKR       0.051033
     32 H22          0.4430    11.2460    14.6060 ha         1 WKR       0.122500
     33 H24          2.1000    12.7450    13.5060 ha         1 WKR       0.121000
@<TRIPOS>BOND
     1     1     2 1   
     2     1     3 1   
     3     1    12 2   
     4     2     4 ar  
     5     2     5 ar  
     6     3     6 1   
     7     3    19 1   
     8     4    14 ar  
     9     4    20 1   
    10     5     7 ar  
    11     5    21 1   
    12     6    15 2   
    13     6    16 1   
    14     7    18 ar  
    15     7    22 1   
    16     8     9 1   
    17     8    10 1   
    18     8    11 1   
    19     8    16 1   
    20     9    23 1   
    21     9    24 1   
    22     9    25 1   
    23    10    26 1   
    24    10    27 1   
    25    10    28 1   
    26    11    29 1   
    27    11    30 1   
    28    11    31 1   
    29    12    13 1   
    30    13    15 1   
    31    13    17 2   
    32    14    18 ar  
    33    14    32 1   
    34    18    33 1   
@<TRIPOS>SUBSTRUCTURE
     1 WKR         1 TEMP              0 ****  ****    0 ROOT
