@<TRIPOS>MOLECULE
WKS
   30    31     1     0     0
SMALL
No Charge or Current Charge


@<TRIPOS>ATOM
      1 C10        -41.2180     8.8030     2.5160 c6         1 WKS       0.224800
      2 N12        -42.9270     9.3430     4.3320 n7         1 WKS      -0.860400
      3 C13        -41.8400     9.9740     5.1330 c6         1 WKS       0.138800
      4 C02        -36.3790     9.0250     3.2330 ca         1 WKS       0.157300
      5 C03        -37.6680     9.0660     3.7850 ca         1 WKS      -0.302000
      6 C04        -38.7530     9.2780     2.9150 ca         1 WKS       0.408900
      7 C06        -37.2760     9.3790     1.1520 ca         1 WKS       0.185300
      8 C07        -37.0570     9.5660    -0.3380 c3         1 WKS      -0.134400
      9 C11        -42.6120     9.4170     2.8770 c6         1 WKS       0.138800
     10 C14        -40.4230     9.3800     4.8330 c6         1 WKS       0.224800
     11 N05        -38.5490     9.4340     1.5910 nb         1 WKS      -0.283000
     12 N08        -36.1790     9.1860     1.9110 nb         1 WKS      -0.233000
     13 N09        -40.0940     9.3420     3.3650 nh         1 WKS      -0.787300
     14 H1         -41.2760     7.7110     2.6370 h1         1 WKS       0.061200
     15 H2         -41.0420     8.9960     1.4480 h1         1 WKS       0.061200
     16 H3         -43.8100     9.8400     4.5110 hn         1 WKS       0.415000
     17 H5         -41.8190    11.0530     4.9180 h1         1 WKS       0.040200
     18 H6         -42.0610     9.8620     6.2050 h1         1 WKS       0.040200
     19 H7         -34.3760     8.2470     3.5580 hc         1 WKS       0.052033
     20 H8         -34.7210     9.7620     4.4110 hc         1 WKS       0.052033
     21 H9         -35.3990     8.2350     5.0000 hc         1 WKS       0.052033
     22 H10        -37.8060     8.9270     4.8520 ha         1 WKS       0.126000
     23 H11        -37.8980     9.1690    -0.9200 hc         1 WKS       0.056033
     24 H12        -36.9500    10.6280    -0.5850 hc         1 WKS       0.056033
     25 H13        -36.1510     9.0500    -0.6790 hc         1 WKS       0.056033
     26 H14        -42.6210    10.4720     2.5620 h1         1 WKS       0.040200
     27 H15        -43.3960     8.9000     2.3050 h1         1 WKS       0.040200
     28 H16        -40.3710     8.3630     5.2500 h1         1 WKS       0.061200
     29 H17        -39.6910     9.9950     5.3760 h1         1 WKS       0.061200
     30 C01        -35.1520     8.8040     4.0970 c3         1 WKS      -0.149400
@<TRIPOS>BOND
     1     1     9 1   
     2     1    13 1   
     3     1    14 1   
     4     1    15 1   
     5     2     3 1   
     6     2     9 1   
     7     2    16 1   
     8     3    10 1   
     9     3    17 1   
    10     3    18 1   
    11     4     5 ar  
    12     4    12 ar  
    13     4    30 1   
    14     5     6 ar  
    15     5    22 1   
    16     6    11 ar  
    17     6    13 1   
    18     7     8 1   
    19     7    11 ar  
    20     7    12 ar  
    21     8    23 1   
    22     8    24 1   
    23     8    25 1   
    24     9    26 1   
    25     9    27 1   
    26    10    13 1   
    27    10    28 1   
    28    10    29 1   
    29    19    30 1   
    30    20    30 1   
    31    21    30 1   
@<TRIPOS>SUBSTRUCTURE
     1 WKS         1 TEMP              0 ****  ****    0 ROOT
