@<TRIPOS>MOLECULE
WKS
   30    31     1     0     0
SMALL
abcg2


@<TRIPOS>ATOM
      1 C10        -41.2310     8.8070     2.4660 c6         1 WKS       0.224800
      2 N12        -42.7590     9.5370     4.2020 n7         1 WKS      -0.860400
      3 C13        -41.6500     9.7810     5.1020 c6         1 WKS       0.138800
      4 C02        -36.4830     9.2270     3.2740 ca         1 WKS       0.157300
      5 C03        -37.7330     9.0980     3.8370 ca         1 WKS      -0.302000
      6 C04        -38.8420     9.0660     2.9670 ca         1 WKS       0.408900
      7 C06        -37.3950     9.2690     1.2050 ca         1 WKS       0.185300
      8 C07        -37.2090     9.3920    -0.2770 c3         1 WKS      -0.134400
      9 C11        -42.3570     9.7600     2.8260 c6         1 WKS       0.138800
     10 C14        -40.5080     8.8290     4.7820 c6         1 WKS       0.224800
     11 N05        -38.6360     9.1460     1.6450 nb         1 WKS      -0.283000
     12 N08        -36.3000     9.3160     1.9500 nb         1 WKS      -0.233000
     13 N09        -40.1200     8.9610     3.3900 nh         1 WKS      -0.787300
     14 H1         -41.5990     7.7750     2.5130 h1         1 WKS       0.061200
     15 H2         -40.8860     8.9950     1.4540 h1         1 WKS       0.061200
     16 H3         -43.5310    10.1470     4.4380 hn         1 WKS       0.415000
     17 H5         -41.2690    10.8130     5.0440 h1         1 WKS       0.040200
     18 H6         -41.9710     9.6080     6.1310 h1         1 WKS       0.040200
     19 H7         -34.5580     8.4860     3.8360 hc         1 WKS       0.052033
     20 H8         -34.7350    10.2240     3.9900 hc         1 WKS       0.052033
     21 H9         -35.4860     9.1590     5.1820 hc         1 WKS       0.052033
     22 H10        -37.8240     9.0220     4.9100 ha         1 WKS       0.126000
     23 H11        -38.1100     9.1060    -0.8140 hc         1 WKS       0.056033
     24 H12        -36.9700    10.4250    -0.5390 hc         1 WKS       0.056033
     25 H13        -36.3770     8.7760    -0.6170 hc         1 WKS       0.056033
     26 H14        -42.0170    10.7920     2.6420 h1         1 WKS       0.040200
     27 H15        -43.2040     9.5710     2.1640 h1         1 WKS       0.040200
     28 H16        -40.8220     7.7980     4.9790 h1         1 WKS       0.061200
     29 H17        -39.6760     9.0490     5.4440 h1         1 WKS       0.061200
     30 C01        -35.2540     9.2740     4.1250 c3         1 WKS      -0.149400
@<TRIPOS>BOND
     1     1     9 1   
     2     1    13 1   
     3     1    14 1   
     4     1    15 1   
     5     2     3 1   
     6     2     9 1   
     7     2    16 1   
     8     3    10 1   
     9     3    17 1   
    10     3    18 1   
    11     4     5 ar  
    12     4    12 ar  
    13     4    30 1   
    14     5     6 ar  
    15     5    22 1   
    16     6    11 ar  
    17     6    13 1   
    18     7     8 1   
    19     7    11 ar  
    20     7    12 ar  
    21     8    23 1   
    22     8    24 1   
    23     8    25 1   
    24     9    26 1   
    25     9    27 1   
    26    10    13 1   
    27    10    28 1   
    28    10    29 1   
    29    19    30 1   
    30    20    30 1   
    31    21    30 1   
@<TRIPOS>SUBSTRUCTURE
     1 WKS         1 TEMP              0 ****  ****    0 ROOT
