@<TRIPOS>MOLECULE
WKV
   26    26     1     0     0
SMALL
No Charge or Current Charge


@<TRIPOS>ATOM
      1 C10        -31.7680    20.9760     0.1060 c3         1 WKV       0.158300
      2 C01        -35.4790    21.3430     2.2650 c3         1 WKV       0.147900
      3 C03        -34.2530    21.6140     0.1320 ca         1 WKV       0.156100
      4 C04        -35.4050    22.0960    -0.5320 ca         1 WKV      -0.198000
      5 C05        -35.3460    22.4490    -1.8910 ca         1 WKV      -0.045000
      6 C06        -34.1390    22.3200    -2.5930 ca         1 WKV      -0.052900
      7 C08        -32.9900    21.8430    -1.9430 ca         1 WKV      -0.040000
      8 C09        -33.0340    21.4940    -0.5770 ca         1 WKV      -0.129300
      9 C12        -30.3220    23.0000     0.4820 c          1 WKV       0.597100
     10 C14        -29.0590    23.7050     0.0070 c3         1 WKV      -0.181100
     11 N11        -30.6010    21.8210    -0.1680 ns         1 WKV      -0.513900
     12 O02        -34.2870    21.2470     1.4650 os         1 WKV      -0.344100
     13 O13        -31.0290    23.4470     1.3730 o          1 WKV      -0.595100
     14 Br7        -34.0590    22.7940    -4.4440 br         1 WKV      -0.102100
     15 H1         -31.9020    20.9110     1.1930 h1         1 WKV       0.069700
     16 H2         -31.5570    19.9620    -0.2570 h1         1 WKV       0.069700
     17 H3         -35.2770    21.0030     3.2890 h1         1 WKV       0.043367
     18 H4         -35.8320    22.3810     2.3160 h1         1 WKV       0.043367
     19 H5         -36.2790    20.7170     1.8510 h1         1 WKV       0.043367
     20 H6         -36.3540    22.2000    -0.0150 ha         1 WKV       0.121000
     21 H7         -36.2350    22.8180    -2.3970 ha         1 WKV       0.128000
     22 H8         -32.0630    21.7450    -2.5040 ha         1 WKV       0.129000
     23 H9         -29.1290    23.8710    -1.0740 hc         1 WKV       0.060033
     24 H10        -28.8680    24.6390     0.5480 hc         1 WKV       0.060033
     25 H11        -28.2130    23.0130     0.0820 hc         1 WKV       0.060033
     26 H12        -29.9480    21.5280    -0.8840 hn         1 WKV       0.312500
@<TRIPOS>BOND
     1     1     8 1   
     2     1    11 1   
     3     1    15 1   
     4     1    16 1   
     5     2    12 1   
     6     2    17 1   
     7     2    18 1   
     8     2    19 1   
     9     3     4 ar  
    10     3     8 ar  
    11     3    12 1   
    12     4     5 ar  
    13     4    20 1   
    14     5     6 ar  
    15     5    21 1   
    16     6     7 ar  
    17     6    14 1   
    18     7     8 ar  
    19     7    22 1   
    20     9    10 1   
    21     9    11 1   
    22     9    13 2   
    23    10    23 1   
    24    10    24 1   
    25    10    25 1   
    26    11    26 1   
@<TRIPOS>SUBSTRUCTURE
     1 WKV         1 TEMP              0 ****  ****    0 ROOT
