@<TRIPOS>MOLECULE
WKV
   26    26     1     0     0
SMALL
bcc


@<TRIPOS>ATOM
      1 C10        -31.9020    21.5800     0.6400 c3         1 WKV       0.158300
      2 C01        -35.7220    20.8950     2.0550 c3         1 WKV       0.124700
      3 C03        -34.3810    21.6020     0.2240 ca         1 WKV       0.156100
      4 C04        -35.4880    21.8360    -0.5830 ca         1 WKV      -0.216000
      5 C05        -35.3240    22.3120    -1.8790 ca         1 WKV      -0.063000
      6 C06        -34.0490    22.5470    -2.3550 ca         1 WKV      -0.052900
      7 C08        -32.9360    22.3170    -1.5540 ca         1 WKV      -0.058000
      8 C09        -33.0870    21.8470    -0.2620 ca         1 WKV      -0.129300
      9 C12        -30.1070    23.1600     0.1190 c          1 WKV       0.664100
     10 C14        -28.7710    23.3330    -0.5580 c3         1 WKV      -0.181100
     11 N11        -30.6300    21.9210     0.0630 ns         1 WKV      -0.580900
     12 O02        -34.4500    21.1380     1.4840 os         1 WKV      -0.320900
     13 O13        -30.6760    24.0890     0.6760 o          1 WKV      -0.595100
     14 BR7        -33.8070    23.1920    -4.1160 br         1 WKV      -0.102100
     15 H1         -32.0250    22.1250     1.5780 h1         1 WKV       0.069700
     16 H2         -31.8740    20.5210     0.9030 h1         1 WKV       0.069700
     17 H3         -35.5430    20.5450     3.0680 h1         1 WKV       0.043367
     18 H4         -36.3290    21.8020     2.0970 h1         1 WKV       0.043367
     19 H5         -36.2720    20.1250     1.5080 h1         1 WKV       0.043367
     20 H6         -36.4920    21.6530    -0.2280 ha         1 WKV       0.139000
     21 H7         -36.1970    22.4880    -2.4920 ha         1 WKV       0.146000
     22 H8         -31.9420    22.5000    -1.9400 ha         1 WKV       0.147000
     23 H9         -28.8790    24.0300    -1.3890 hc         1 WKV       0.060033
     24 H10        -28.0640    23.7710     0.1440 hc         1 WKV       0.060033
     25 H11        -28.3510    22.4050    -0.9410 hc         1 WKV       0.060033
     26 H12        -30.1310    21.2010    -0.4330 hn         1 WKV       0.312500
@<TRIPOS>BOND
     1     1     8 1   
     2     1    11 1   
     3     1    15 1   
     4     1    16 1   
     5     2    12 1   
     6     2    17 1   
     7     2    18 1   
     8     2    19 1   
     9     3     4 ar  
    10     3     8 ar  
    11     3    12 1   
    12     4     5 ar  
    13     4    20 1   
    14     5     6 ar  
    15     5    21 1   
    16     6     7 ar  
    17     6    14 1   
    18     7     8 ar  
    19     7    22 1   
    20     9    10 1   
    21     9    11 1   
    22     9    13 2   
    23    10    23 1   
    24    10    24 1   
    25    10    25 1   
    26    11    26 1   
@<TRIPOS>SUBSTRUCTURE
     1 WKV         1 TEMP              0 ****  ****    0 ROOT
