@<TRIPOS>MOLECULE
WKW
   47    50     1     0     0
SMALL
No Charge or Current Charge


@<TRIPOS>ATOM
      1 C01          6.4600     6.9320    16.8220 ce         1 WKW      -0.022400
      2 C02          5.8770     6.4700    17.9980 cf         1 WKW      -0.267400
      3 C04          8.2340     6.2870    19.0760 c6         1 WKW      -0.069400
      4 C05          8.6490     7.4140    18.1250 c6         1 WKW      -0.076400
      5 C06          7.9860     7.1920    16.7530 c6         1 WKW      -0.056200
      6 C07          0.2770     4.7990    20.1140 cc         1 WKW      -0.287300
      7 C10         -1.0960     4.2090    19.9090 c3         1 WKW      -0.003800
      8 C13          2.1780     5.7690    21.0790 cd         1 WKW      -0.342500
      9 C15          3.0070     6.3380    22.1360 cd         1 WKW       0.637500
     10 C17          4.5400     7.2120    23.2630 cc         1 WKW       0.618300
     11 C20          5.8560     7.8150    23.5810 cx         1 WKW      -0.189000
     12 C21          4.4490     5.9940    18.0870 c          1 WKW       0.622300
     13 C23          5.7220     7.2980    15.5310 c          1 WKW       0.708200
     14 C26          7.1290     7.2970    22.9430 cx         1 WKW      -0.104900
     15 C27          6.5990     8.6650    22.5690 cx         1 WKW      -0.104900
     16 C03          6.7110     6.3240    19.2990 c6         1 WKW      -0.023200
     17 C08          0.8330     5.2820    21.2810 cd         1 WKW      -0.021300
     18 C09          0.0890     5.2840    22.6010 c3         1 WKW      -0.028800
     19 S11          1.3780     4.9310    18.7490 ss         1 WKW       0.319000
     20 C12          2.6240     5.6500    19.7720 cc         1 WKW       0.048600
     21 N14          3.8880     6.0490    19.3500 ns         1 WKW      -0.382100
     22 N16          4.2360     6.7980    21.9960 nc         1 WKW      -0.808000
     23 N18          3.5940     7.0370    24.1660 nd         1 WKW      -0.414300
     24 O19          2.5580     6.4500    23.4180 os         1 WKW      -0.121700
     25 O22          3.8450     5.5300    17.1320 o          1 WKW      -0.542100
     26 O24          4.5660     7.6940    15.5870 o          1 WKW      -0.704000
     27 O25          6.3570     7.3310    14.4840 o          1 WKW      -0.704000
     28 H30          8.7550     6.3900    20.0380 hc         1 WKW       0.029200
     29 H31          8.5290     5.3150    18.6580 hc         1 WKW       0.029200
     30 H32          8.3480     8.3860    18.5380 hc         1 WKW       0.029200
     31 H33          9.7420     7.4370    18.0150 hc         1 WKW       0.029200
     32 H34          8.4650     6.3400    16.2520 hc         1 WKW       0.064200
     33 H35          8.1960     8.0700    16.1270 hc         1 WKW       0.064200
     34 H40         -1.2520     3.9140    18.8640 hc         1 WKW       0.035700
     35 H41         -1.2370     3.3180    20.5320 hc         1 WKW       0.035700
     36 H39         -1.8770     4.9340    20.1700 hc         1 WKW       0.035700
     37 H43          5.9240     8.1270    24.6200 hc         1 WKW       0.093700
     38 H46          8.0230     7.2520    23.5600 hc         1 WKW       0.080700
     39 H45          7.0450     6.4940    22.2150 hc         1 WKW       0.080700
     40 H48          6.1560     8.7970    21.5850 hc         1 WKW       0.080700
     41 H47          7.1390     9.5340    22.9380 hc         1 WKW       0.080700
     42 H29          6.4720     7.1740    19.9490 hc         1 WKW       0.028700
     43 H28          6.4170     5.4170    19.8450 hc         1 WKW       0.028700
     44 H38          0.6180     4.6860    23.3530 hc         1 WKW       0.042033
     45 H37         -0.0250     6.3040    22.9870 hc         1 WKW       0.042033
     46 H36         -0.9180     4.8630    22.5140 hc         1 WKW       0.042033
     47 H42          4.4930     6.4450    20.0640 hn         1 WKW       0.365500
@<TRIPOS>BOND
     1     1     2 2   
     2     1     5 1   
     3     1    13 1   
     4     2    12 1   
     5     2    16 1   
     6     3     4 1   
     7     3    16 1   
     8     3    28 1   
     9     3    29 1   
    10     4     5 1   
    11     4    30 1   
    12     4    31 1   
    13     5    32 1   
    14     5    33 1   
    15     6     7 1   
    16     6    17 2   
    17     6    19 1   
    18     7    34 1   
    19     7    35 1   
    20     7    36 1   
    21     8     9 1   
    22     8    17 1   
    23     8    20 2   
    24     9    22 2   
    25     9    24 1   
    26    10    11 1   
    27    10    22 1   
    28    10    23 2   
    29    11    14 1   
    30    11    15 1   
    31    11    37 1   
    32    12    21 1   
    33    12    25 2   
    34    13    26 1   
    35    13    27 1   
    36    14    15 1   
    37    14    38 1   
    38    14    39 1   
    39    15    40 1   
    40    15    41 1   
    41    16    42 1   
    42    16    43 1   
    43    17    18 1   
    44    18    44 1   
    45    18    45 1   
    46    18    46 1   
    47    19    20 1   
    48    20    21 1   
    49    21    47 1   
    50    23    24 1   
@<TRIPOS>SUBSTRUCTURE
     1 WKW         1 TEMP              0 ****  ****    0 ROOT
