@<TRIPOS>MOLECULE
WKW
   47    50     1     0     0
SMALL
abcg2


@<TRIPOS>ATOM
      1 C01          6.3840     6.7580    16.8140 ce         1 WKW      -0.022400
      2 C02          5.9040     6.4410    18.0320 cf         1 WKW      -0.267400
      3 C04          8.2340     6.7200    19.0050 c6         1 WKW      -0.069400
      4 C05          8.4650     7.7430    17.9000 c6         1 WKW      -0.076400
      5 C06          7.7830     7.2860    16.6140 c6         1 WKW      -0.056200
      6 C07          0.3740     4.9260    20.0280 cc         1 WKW      -0.287300
      7 C10         -0.9860     4.3890    19.7010 c3         1 WKW      -0.003800
      8 C13          2.2300     5.7940    21.1340 cd         1 WKW      -0.342500
      9 C15          3.0440     6.2940    22.2040 cd         1 WKW       0.637500
     10 C17          4.6010     7.0610    23.4160 cc         1 WKW       0.618300
     11 C20          5.9100     7.5710    23.8240 cx         1 WKW      -0.189000
     12 C21          4.5080     5.9760    18.1810 c          1 WKW       0.622300
     13 C23          5.6210     6.6600    15.5040 c          1 WKW       0.708200
     14 C26          7.1520     7.0590    23.1250 cx         1 WKW      -0.104900
     15 C27          6.6900     8.4560    22.8730 cx         1 WKW      -0.104900
     16 C03          6.7420     6.5740    19.2910 c6         1 WKW      -0.023200
     17 C08          0.8600     5.3440    21.2300 cd         1 WKW      -0.021300
     18 C09          0.0540     5.3280    22.4950 c3         1 WKW      -0.028800
     19 S11          1.5560     5.0660    18.7520 ss         1 WKW       0.319000
     20 C12          2.7360     5.6960    19.8390 cc         1 WKW       0.048600
     21 N14          4.0040     6.0540    19.4610 ns         1 WKW      -0.382100
     22 N16          4.2950     6.6910    22.1310 nc         1 WKW      -0.808000
     23 N18          3.6120     6.9130    24.2580 nd         1 WKW      -0.414300
     24 O19          2.5610     6.3990    23.4530 os         1 WKW      -0.121700
     25 O22          3.8000     5.5460    17.2720 o          1 WKW      -0.542100
     26 O24          4.9180     7.6510    15.1910 o          1 WKW      -0.704000
     27 O25          5.8580     5.6430    14.8080 o          1 WKW      -0.704000
     28 H30          8.7530     7.0080    19.9210 hc         1 WKW       0.029200
     29 H31          8.6430     5.7530    18.6930 hc         1 WKW       0.029200
     30 H32          8.0530     8.7090    18.2100 hc         1 WKW       0.029200
     31 H33          9.5320     7.8910    17.7210 hc         1 WKW       0.029200
     32 H34          8.3700     6.4910    16.1390 hc         1 WKW       0.064200
     33 H35          7.7440     8.1000    15.8860 hc         1 WKW       0.064200
     34 H40         -1.0850     4.1960    18.6330 hc         1 WKW       0.035700
     35 H41         -1.1810     3.4510    20.2260 hc         1 WKW       0.035700
     36 H39         -1.7680     5.0960    19.9850 hc         1 WKW       0.035700
     37 H43          5.9870     7.7900    24.8790 hc         1 WKW       0.093700
     38 H46          8.0260     6.9060    23.7420 hc         1 WKW       0.080700
     39 H45          7.0050     6.3310    22.3400 hc         1 WKW       0.080700
     40 H48          6.2320     8.6740    21.9180 hc         1 WKW       0.080700
     41 H47          7.2420     9.2730    23.3180 hc         1 WKW       0.080700
     42 H29          6.4050     7.4420    19.8690 hc         1 WKW       0.028700
     43 H28          6.5820     5.7010    19.9290 hc         1 WKW       0.028700
     44 H38          0.5220     4.7000    23.2550 hc         1 WKW       0.042033
     45 H37         -0.0390     6.3290    22.9200 hc         1 WKW       0.042033
     46 H36         -0.9470     4.9430    22.3060 hc         1 WKW       0.042033
     47 H42          4.5720     6.4250    20.2200 hn         1 WKW       0.365500
@<TRIPOS>BOND
     1     1     2 2   
     2     1     5 1   
     3     1    13 1   
     4     2    12 1   
     5     2    16 1   
     6     3     4 1   
     7     3    16 1   
     8     3    28 1   
     9     3    29 1   
    10     4     5 1   
    11     4    30 1   
    12     4    31 1   
    13     5    32 1   
    14     5    33 1   
    15     6     7 1   
    16     6    17 2   
    17     6    19 1   
    18     7    34 1   
    19     7    35 1   
    20     7    36 1   
    21     8     9 1   
    22     8    17 1   
    23     8    20 2   
    24     9    22 2   
    25     9    24 1   
    26    10    11 1   
    27    10    22 1   
    28    10    23 2   
    29    11    14 1   
    30    11    15 1   
    31    11    37 1   
    32    12    21 1   
    33    12    25 2   
    34    13    26 1   
    35    13    27 1   
    36    14    15 1   
    37    14    38 1   
    38    14    39 1   
    39    15    40 1   
    40    15    41 1   
    41    16    42 1   
    42    16    43 1   
    43    17    18 1   
    44    18    44 1   
    45    18    45 1   
    46    18    46 1   
    47    19    20 1   
    48    20    21 1   
    49    21    47 1   
    50    23    24 1   
@<TRIPOS>SUBSTRUCTURE
     1 WKW         1 TEMP              0 ****  ****    0 ROOT
