@<TRIPOS>MOLECULE
WKY
   21    21     1     0     0
SMALL
bcc


@<TRIPOS>ATOM
      1 C10        -30.4650    -7.1850   -17.5230 ca         1 WKY      -0.258600
      2 C01        -28.4330    -8.8350   -21.4780 c3         1 WKY      -0.184100
      3 C02        -28.2670    -8.8880   -19.9820 c          1 WKY       0.677100
      4 C05        -29.3920    -7.9900   -17.9470 ca         1 WKY       0.115600
      5 C06        -28.5710    -8.5550   -16.9710 ca         1 WKY      -0.274300
      6 C07        -28.8510    -8.2980   -15.6390 ca         1 WKY       0.418200
      7 C09        -30.6320    -7.0130   -16.1570 ca         1 WKY       0.423200
      8 C11        -31.4030    -6.5270   -18.4880 c3         1 WKY      -0.042800
      9 N04        -29.2210    -8.1690   -19.3110 ns         1 WKY      -0.480100
     10 N08        -29.8580    -7.5450   -15.2180 nb         1 WKY      -0.679000
     11 O03        -27.3790    -9.5070   -19.4310 o          1 WKY      -0.565100
     12 H1         -27.6340    -9.3870   -21.9640 hc         1 WKY       0.066367
     13 H2         -29.3910    -9.2670   -21.7730 hc         1 WKY       0.066367
     14 H3         -28.4180    -7.8030   -21.8320 hc         1 WKY       0.066367
     15 H4         -27.7310    -9.1780   -17.2220 ha         1 WKY       0.173000
     16 H5         -28.2140    -8.7320   -14.8750 h4         1 WKY       0.020100
     17 H6         -31.4560    -6.3970   -15.8090 h4         1 WKY       0.015100
     18 H7         -31.9270    -7.2540   -19.1130 hc         1 WKY       0.041367
     19 H8         -32.1610    -5.9570   -17.9540 hc         1 WKY       0.041367
     20 H9         -30.8860    -5.8330   -19.1550 hc         1 WKY       0.041367
     21 H10        -29.8970    -7.7070   -19.8990 hn         1 WKY       0.319500
@<TRIPOS>BOND
     1     1     4 ar  
     2     1     7 ar  
     3     1     8 1   
     4     2     3 1   
     5     2    12 1   
     6     2    13 1   
     7     2    14 1   
     8     3     9 1   
     9     3    11 2   
    10     4     5 ar  
    11     4     9 1   
    12     5     6 ar  
    13     5    15 1   
    14     6    10 ar  
    15     6    16 1   
    16     7    10 ar  
    17     7    17 1   
    18     8    18 1   
    19     8    19 1   
    20     8    20 1   
    21     9    21 1   
@<TRIPOS>SUBSTRUCTURE
     1 WKY         1 TEMP              0 ****  ****    0 ROOT
