@<TRIPOS>MOLECULE
WKY
   21    21     1     0     0
SMALL
No Charge or Current Charge


@<TRIPOS>ATOM
      1 C10        -30.4700    -7.1830   -17.4990 ca         1 WKY      -0.193300
      2 C01        -28.4110    -8.8480   -21.5420 c3         1 WKY      -0.184100
      3 C02        -28.2370    -8.9150   -20.0280 c          1 WKY       0.610100
      4 C05        -29.3910    -7.9880   -17.9240 ca         1 WKY       0.023000
      5 C06        -28.5690    -8.5500   -16.9260 ca         1 WKY      -0.191000
      6 C07        -28.8440    -8.2950   -15.5750 ca         1 WKY       0.352900
      7 C09        -30.6670    -6.9840   -16.1160 ca         1 WKY       0.357900
      8 C11        -31.4200    -6.5280   -18.4990 c3         1 WKY      -0.042800
      9 N04        -29.1860    -8.1940   -19.3180 ns         1 WKY      -0.154000
     10 N08        -29.8750    -7.5250   -15.1660 nb         1 WKY      -0.679000
     11 O03        -27.3270    -9.5600   -19.5200 o          1 WKY      -0.565100
     12 H1         -27.6510    -9.4240   -22.0810 hc         1 WKY       0.066367
     13 H2         -29.4250    -9.1740   -21.7990 hc         1 WKY       0.066367
     14 H3         -28.4190    -7.7970   -21.8540 hc         1 WKY       0.066367
     15 H4         -27.7200    -9.1800   -17.1620 ha         1 WKY       0.155000
     16 H5         -28.2180    -8.7220   -14.7920 h4         1 WKY       0.020100
     17 H6         -31.4900    -6.3680   -15.7560 h4         1 WKY       0.015100
     18 H7         -31.9270    -7.2810   -19.1140 hc         1 WKY       0.041367
     19 H8         -32.1970    -5.9400   -17.9960 hc         1 WKY       0.041367
     20 H9         -30.8800    -5.8490   -19.1710 hc         1 WKY       0.041367
     21 H10        -29.8630    -7.7210   -19.9020 hn         1 WKY       0.153000
@<TRIPOS>BOND
     1     1     4 ar  
     2     1     7 ar  
     3     1     8 1   
     4     2     3 1   
     5     2    12 1   
     6     2    13 1   
     7     2    14 1   
     8     3     9 1   
     9     3    11 2   
    10     4     5 ar  
    11     4     9 1   
    12     5     6 ar  
    13     5    15 1   
    14     6    10 ar  
    15     6    16 1   
    16     7    10 ar  
    17     7    17 1   
    18     8    18 1   
    19     8    19 1   
    20     8    20 1   
    21     9    21 1   
@<TRIPOS>SUBSTRUCTURE
     1 WKY         1 TEMP              0 ****  ****    0 ROOT
