@<TRIPOS>MOLECULE
WL0
   31    32     1     0     0
SMALL
No Charge or Current Charge


@<TRIPOS>ATOM
      1 C02          2.7690     6.0270    20.4540 ca         1 WL0       0.051600
      2 C05          2.3320     4.6870    20.5200 ca         1 WL0      -0.070000
      3 C06          2.0180     6.9590    19.7090 ca         1 WL0      -0.070000
      4 C10          1.1500     4.2920    19.8680 ca         1 WL0      -0.104000
      5 C11          0.8360     6.5640    19.0590 ca         1 WL0      -0.104000
      6 C13          0.4000     5.2300    19.1400 ca         1 WL0      -0.095000
      7 C15          7.5520     6.8140    18.1640 c3         1 WL0      -0.027400
      8 C16          7.4730     6.8730    16.6170 c3         1 WL0      -0.365400
      9 N01          3.9830     6.4420    21.0980 n          1 WL0       0.017000
     10 C03          4.2100     6.1980    22.4440 cs         1 WL0       0.319000
     11 N04          4.9570     7.0790    20.3500 n2         1 WL0      -0.411300
     12 S07          5.8080     6.8030    22.8220 ss         1 WL0      -0.025800
     13 S08          3.1820     5.5110    23.5870 s          1 WL0      -0.525400
     14 C09          5.9520     7.2890    21.1580 cc         1 WL0       0.338100
     15 S12          7.4400     8.0920    20.6650 ss         1 WL0      -0.252200
     16 C14          7.2930     8.1870    18.8200 c3         1 WL0       0.077600
     17 S17          7.8000     5.2870    15.8070 s6         1 WL0       1.344600
     18 O18          9.1670     4.9500    16.2320 o          1 WL0      -0.700200
     19 O19          6.7570     4.3980    16.3380 o          1 WL0      -0.700200
     20 O20          7.6660     5.6000    14.3770 o          1 WL0      -0.700200
     21 H21          2.9130     3.9500    21.0690 ha         1 WL0       0.128000
     22 H22          2.3500     7.9920    19.6400 ha         1 WL0       0.128000
     23 H23          0.8190     3.2570    19.9260 ha         1 WL0       0.115500
     24 H24          0.2590     7.2900    18.4900 ha         1 WL0       0.115500
     25 H25         -0.5130     4.9240    18.6360 ha         1 WL0       0.111000
     26 H29          8.5440     6.4600    18.4700 hc         1 WL0       0.063700
     27 H28          6.8230     6.0860    18.5410 hc         1 WL0       0.063700
     28 H30          6.4720     7.1820    16.2970 h1         1 WL0       0.066700
     29 H31          8.2120     7.5780    16.2220 h1         1 WL0       0.066700
     30 H26          6.2980     8.5620    18.5460 h1         1 WL0       0.071700
     31 H27          8.0380     8.9030    18.4530 h1         1 WL0       0.071700
@<TRIPOS>BOND
     1     1     2 ar  
     2     1     3 ar  
     3     1     9 1   
     4     2     4 ar  
     5     2    21 1   
     6     3     5 ar  
     7     3    22 1   
     8     4     6 ar  
     9     4    23 1   
    10     5     6 ar  
    11     5    24 1   
    12     6    25 1   
    13     7     8 1   
    14     7    16 1   
    15     7    26 1   
    16     7    27 1   
    17     8    17 1   
    18     8    28 1   
    19     8    29 1   
    20     9    10 1   
    21     9    11 1   
    22    10    12 1   
    23    10    13 2   
    24    11    14 2   
    25    12    14 1   
    26    14    15 1   
    27    15    16 1   
    28    16    30 1   
    29    16    31 1   
    30    17    18 1   
    31    17    19 1   
    32    17    20 1   
@<TRIPOS>SUBSTRUCTURE
     1 WL0         1 TEMP              0 ****  ****    0 ROOT
