@<TRIPOS>MOLECULE
WL0
   31    32     1     0     0
SMALL
abcg2


@<TRIPOS>ATOM
      1 C02          2.8860     6.0420    20.3880 ca         1 WL0       0.051600
      2 C05          2.6640     4.6770    20.2770 ca         1 WL0      -0.070000
      3 C06          2.0550     6.9670    19.7730 ca         1 WL0      -0.070000
      4 C10          1.5800     4.2290    19.5330 ca         1 WL0      -0.104000
      5 C11          0.9750     6.5100    19.0260 ca         1 WL0      -0.104000
      6 C13          0.7360     5.1440    18.9080 ca         1 WL0      -0.095000
      7 C15          7.4980     6.7380    18.2530 c3         1 WL0      -0.027400
      8 C16          7.2900     6.8550    16.7470 c3         1 WL0      -0.365400
      9 N01          4.0160     6.5090    21.1380 n          1 WL0       0.017000
     10 C03          4.1090     6.4690    22.4850 cs         1 WL0       0.319000
     11 N04          5.0720     7.0250    20.4240 n2         1 WL0      -0.411300
     12 S07          5.6830     7.1100    22.9130 ss         1 WL0      -0.025800
     13 S08          2.9750     5.9400    23.5820 s          1 WL0      -0.525400
     14 C09          6.0250     7.3830    21.2170 cc         1 WL0       0.338100
     15 S12          7.5400     8.0840    20.7260 ss         1 WL0      -0.252200
     16 C14          7.3470     8.1050    18.9110 c3         1 WL0       0.077600
     17 S17          7.2870     5.2640    15.9090 s6         1 WL0       1.344600
     18 O18          8.5880     4.6450    16.2010 o          1 WL0      -0.700200
     19 O19          6.1570     4.5100    16.4720 o          1 WL0      -0.700200
     20 O20          7.1100     5.5770    14.4850 o          1 WL0      -0.700200
     21 H21          3.3320     3.9820    20.7670 ha         1 WL0       0.128000
     22 H22          2.2550     8.0250    19.8790 ha         1 WL0       0.128000
     23 H23          1.3970     3.1670    19.4380 ha         1 WL0       0.115500
     24 H24          0.3200     7.2210    18.5400 ha         1 WL0       0.115500
     25 H25         -0.1060     4.7910    18.3280 ha         1 WL0       0.111000
     26 H29          8.4900     6.3370    18.4630 hc         1 WL0       0.063700
     27 H28          6.7650     6.0490    18.6690 hc         1 WL0       0.063700
     28 H30          6.3270     7.3140    16.5170 h1         1 WL0       0.066700
     29 H31          8.0760     7.4500    16.2800 h1         1 WL0       0.066700
     30 H26          6.3810     8.5570    18.6880 h1         1 WL0       0.071700
     31 H27          8.1300     8.7920    18.5850 h1         1 WL0       0.071700
@<TRIPOS>BOND
     1     1     2 ar  
     2     1     3 ar  
     3     1     9 1   
     4     2     4 ar  
     5     2    21 1   
     6     3     5 ar  
     7     3    22 1   
     8     4     6 ar  
     9     4    23 1   
    10     5     6 ar  
    11     5    24 1   
    12     6    25 1   
    13     7     8 1   
    14     7    16 1   
    15     7    26 1   
    16     7    27 1   
    17     8    17 1   
    18     8    28 1   
    19     8    29 1   
    20     9    10 1   
    21     9    11 1   
    22    10    12 1   
    23    10    13 2   
    24    11    14 2   
    25    12    14 1   
    26    14    15 1   
    27    15    16 1   
    28    16    30 1   
    29    16    31 1   
    30    17    18 1   
    31    17    19 1   
    32    17    20 1   
@<TRIPOS>SUBSTRUCTURE
     1 WL0         1 TEMP              0 ****  ****    0 ROOT
