@<TRIPOS>MOLECULE
WL1
   19    19     1     0     0
SMALL
abcg2


@<TRIPOS>ATOM
      1 C10        -30.4230     7.2760     7.2100 ca         1 WL1      -0.039000
      2 C01        -29.5680     3.2630     7.9630 c3         1 WL1       0.153900
      3 C03        -30.5410     4.8510     6.5240 c          1 WL1       0.607700
      4 C05        -30.8200     6.2900     6.3090 ca         1 WL1      -0.151600
      5 C06        -31.5110     6.6670     5.1590 ca         1 WL1      -0.039000
      6 C07        -31.8000     7.9950     4.9100 ca         1 WL1      -0.130000
      7 C08        -31.3990     8.9780     5.8160 ca         1 WL1      -0.054000
      8 C09        -30.7080     8.6080     6.9680 ca         1 WL1      -0.130000
      9 O02        -29.8840     4.6190     7.6500 os         1 WL1      -0.441100
     10 O04        -30.8760     3.9790     5.7570 o          1 WL1      -0.489000
     11 S11        -31.7980    10.6460     5.4390 sh         1 WL1      -0.156800
     12 H1         -29.8860     7.0190     8.1130 ha         1 WL1       0.134500
     13 H2         -29.0590     3.2910     8.9220 h1         1 WL1       0.049033
     14 H3         -30.4680     2.6550     8.0500 h1         1 WL1       0.049033
     15 H4         -28.9080     2.8250     7.2150 h1         1 WL1       0.049033
     16 H5         -31.8280     5.9170     4.4470 ha         1 WL1       0.134500
     17 H6         -32.3380     8.2650     4.0110 ha         1 WL1       0.124000
     18 H7         -30.3900     9.3580     7.6810 ha         1 WL1       0.124000
     19 H8         -31.2500    11.2140     6.5180 hs         1 WL1       0.203800
@<TRIPOS>BOND
     1     1     4 ar  
     2     1     8 ar  
     3     1    12 1   
     4     2     9 1   
     5     2    13 1   
     6     2    14 1   
     7     2    15 1   
     8     3     4 1   
     9     3     9 1   
    10     3    10 2   
    11     4     5 ar  
    12     5     6 ar  
    13     5    16 1   
    14     6     7 ar  
    15     6    17 1   
    16     7     8 ar  
    17     7    11 1   
    18     8    18 1   
    19    11    19 1   
@<TRIPOS>SUBSTRUCTURE
     1 WL1         1 TEMP              0 ****  ****    0 ROOT
