@<TRIPOS>MOLECULE
WL1
   19    19     1     0     0
SMALL
No Charge or Current Charge


@<TRIPOS>ATOM
      1 C10        -30.4400     7.2860     7.1930 ca         1 WL1      -0.039000
      2 C01        -29.5300     3.2260     8.0200 c3         1 WL1       0.153900
      3 C03        -30.5440     4.8250     6.5230 c          1 WL1       0.607700
      4 C05        -30.8420     6.2860     6.2780 ca         1 WL1      -0.151600
      5 C06        -31.5370     6.6760     5.1120 ca         1 WL1      -0.039000
      6 C07        -31.8220     8.0310     4.8690 ca         1 WL1      -0.130000
      7 C08        -31.4210     9.0200     5.7810 ca         1 WL1      -0.054000
      8 C09        -30.7290     8.6400     6.9440 ca         1 WL1      -0.130000
      9 O02        -29.8640     4.5870     7.6920 os         1 WL1      -0.441100
     10 O04        -30.8800     3.9390     5.7470 o          1 WL1      -0.489000
     11 S11        -31.7880    10.7360     5.4620 sh         1 WL1      -0.156800
     12 H1         -29.9020     7.0250     8.1030 ha         1 WL1       0.134500
     13 H2         -28.9920     3.1840     8.9750 h1         1 WL1       0.049033
     14 H3         -30.4360     2.6120     8.1140 h1         1 WL1       0.049033
     15 H4         -28.8870     2.7830     7.2480 h1         1 WL1       0.049033
     16 H5         -31.8590     5.9290     4.3880 ha         1 WL1       0.134500
     17 H6         -32.3580     8.3130     3.9660 ha         1 WL1       0.124000
     18 H7         -30.4110     9.3940     7.6600 ha         1 WL1       0.124000
     19 H8         -31.2120    11.2220     6.5870 hs         1 WL1       0.203800
@<TRIPOS>BOND
     1     1     4 ar  
     2     1     8 ar  
     3     1    12 1   
     4     2     9 1   
     5     2    13 1   
     6     2    14 1   
     7     2    15 1   
     8     3     4 1   
     9     3     9 1   
    10     3    10 2   
    11     4     5 ar  
    12     5     6 ar  
    13     5    16 1   
    14     6     7 ar  
    15     6    17 1   
    16     7     8 ar  
    17     7    11 1   
    18     8    18 1   
    19    11    19 1   
@<TRIPOS>SUBSTRUCTURE
     1 WL1         1 TEMP              0 ****  ****    0 ROOT
