@<TRIPOS>MOLECULE
WL3
   26    27     1     0     0
SMALL
No Charge or Current Charge


@<TRIPOS>ATOM
      1 C01          1.4970     0.8740    -0.2550 ca         1 WL3      -0.131600
      2 C02         -3.4620     0.0970    -0.7160 ca         1 WL3      -0.176500
      3 C03         -2.2370     0.5240    -1.2580 ca         1 WL3      -0.034000
      4 C04         -1.2000     0.3230     0.9380 ca         1 WL3      -0.034000
      5 C05         -2.4280    -0.1030     1.4740 ca         1 WL3      -0.176500
      6 C06         -3.5530    -0.2170     0.6470 ca         1 WL3       0.165000
      7 C07          3.4580     1.8360     0.8460 ca         1 WL3      -0.143000
      8 C08          3.8570     0.5580     1.2620 ca         1 WL3      -0.133000
      9 C09          3.0920    -0.5660     0.9110 ca         1 WL3      -0.090000
     10 C10          1.9130    -0.4290     0.1440 ca         1 WL3      -0.113600
     11 C11          2.2870     1.9920     0.0910 ca         1 WL3      -0.113000
     12 C12          1.1500    -1.6760    -0.2590 c          1 WL3       0.708600
     13 F13         -4.7310    -0.6250     1.1660 f          1 WL3      -0.199000
     14 O14          0.7300    -1.7540    -1.4040 o          1 WL3      -0.705000
     15 O15          1.0380    -2.5750     0.5630 o          1 WL3      -0.705000
     16 C16          0.2210     1.1050    -1.0330 c          1 WL3       0.660300
     17 C17         -1.0900     0.6340    -0.4390 ca         1 WL3      -0.119600
     18 O18          0.2520     1.7000    -2.1080 o          1 WL3      -0.559100
     19 H11          1.9800     2.9900    -0.2170 ha         1 WL3       0.096000
     20 H02         -4.3390     0.0100    -1.3520 ha         1 WL3       0.117500
     21 H03         -2.1790     0.7630    -2.3190 ha         1 WL3       0.130500
     22 H04         -0.3410     0.4160     1.6000 ha         1 WL3       0.130500
     23 H05         -2.5070    -0.3420     2.5320 ha         1 WL3       0.117500
     24 H07          4.0540     2.7060     1.1130 ha         1 WL3       0.087000
     25 H08          4.7650     0.4360     1.8480 ha         1 WL3       0.089000
     26 H09          3.4240    -1.5540     1.2240 ha         1 WL3       0.130000
@<TRIPOS>BOND
     1     1    10 ar  
     2     1    11 ar  
     3     1    16 1   
     4     2     3 ar  
     5     2     6 ar  
     6     2    20 1   
     7     3    17 ar  
     8     3    21 1   
     9     4     5 ar  
    10     4    17 ar  
    11     4    22 1   
    12     5     6 ar  
    13     5    23 1   
    14     6    13 1   
    15     7     8 ar  
    16     7    11 ar  
    17     7    24 1   
    18     8     9 ar  
    19     8    25 1   
    20     9    10 ar  
    21     9    26 1   
    22    10    12 1   
    23    11    19 1   
    24    12    14 1   
    25    12    15 1   
    26    16    17 1   
    27    16    18 2   
@<TRIPOS>SUBSTRUCTURE
     1 WL3         1 TEMP              0 ****  ****    0 ROOT
