@<TRIPOS>MOLECULE
WL3
   26    27     1     0     0
SMALL
bcc


@<TRIPOS>ATOM
      1 C01          1.4760     0.6410    -0.2470 ca         1 WL3      -0.131600
      2 C02         -3.4790     0.3930    -0.6850 ca         1 WL3      -0.194500
      3 C03         -2.2270     0.5660    -1.2490 ca         1 WL3      -0.052000
      4 C04         -1.1950     0.2370     0.8930 ca         1 WL3      -0.052000
      5 C05         -2.4410     0.0680     1.4780 ca         1 WL3      -0.194500
      6 C06         -3.5610     0.1460     0.6730 ca         1 WL3       0.129900
      7 C07          3.1460     1.8610     0.9870 ca         1 WL3      -0.161000
      8 C08          3.7520     0.6650     1.3480 ca         1 WL3      -0.151000
      9 C09          3.2200    -0.5380     0.9070 ca         1 WL3      -0.108000
     10 C10          2.0830    -0.5620     0.1060 ca         1 WL3      -0.113600
     11 C11          2.0110     1.8490     0.1880 ca         1 WL3      -0.131000
     12 C12          1.5040    -1.8640    -0.4100 c          1 WL3       0.919200
     13 F13         -4.7700    -0.0190     1.2280 f          1 WL3      -0.163900
     14 O14          0.5420    -1.7340    -1.1980 o          1 WL3      -0.810300
     15 O15          2.0210    -2.9240    -0.0230 o          1 WL3      -0.810300
     16 C16          0.2530     0.6970    -1.1150 c          1 WL3       0.660300
     17 C17         -1.0720     0.4850    -0.4720 ca         1 WL3      -0.119600
     18 O18          0.3390     1.1000    -2.2580 o          1 WL3      -0.559100
     19 H11          1.5380     2.7840    -0.0850 ha         1 WL3       0.114000
     20 H02         -4.3750     0.4510    -1.2890 ha         1 WL3       0.135500
     21 H03         -2.1490     0.7600    -2.3100 ha         1 WL3       0.148500
     22 H04         -0.3160     0.1790     1.5210 ha         1 WL3       0.148500
     23 H05         -2.5370    -0.1190     2.5390 ha         1 WL3       0.135500
     24 H07          3.5570     2.8040     1.3240 ha         1 WL3       0.105000
     25 H08          4.6380     0.6710     1.9700 ha         1 WL3       0.107000
     26 H09          3.6910    -1.4740     1.1770 ha         1 WL3       0.148000
@<TRIPOS>BOND
     1     1    10 ar  
     2     1    11 ar  
     3     1    16 1   
     4     2     3 ar  
     5     2     6 ar  
     6     2    20 1   
     7     3    17 ar  
     8     3    21 1   
     9     4     5 ar  
    10     4    17 ar  
    11     4    22 1   
    12     5     6 ar  
    13     5    23 1   
    14     6    13 1   
    15     7     8 ar  
    16     7    11 ar  
    17     7    24 1   
    18     8     9 ar  
    19     8    25 1   
    20     9    10 ar  
    21     9    26 1   
    22    10    12 1   
    23    11    19 1   
    24    12    14 1   
    25    12    15 1   
    26    16    17 1   
    27    16    18 2   
@<TRIPOS>SUBSTRUCTURE
     1 WL3         1 TEMP              0 ****  ****    0 ROOT
