@<TRIPOS>MOLECULE
WL4
   26    26     1     0     0
SMALL
No Charge or Current Charge


@<TRIPOS>ATOM
      1 C10        -35.3920    21.8990    -1.9040 ca         1 WL4      -0.101000
      2 C01        -28.8480    23.8510     1.4150 c3         1 WL4      -0.084600
      3 C02        -29.1630    22.7330     0.3920 c3         1 WL4      -0.139700
      4 C03        -28.2190    21.5170     0.5560 c3         1 WL4      -0.084600
      5 C04        -30.6480    22.3050     0.4660 c          1 WL4       0.608100
      6 C07        -32.7250    22.3050    -1.0550 ca         1 WL4      -0.018000
      7 C08        -33.6750    21.7260    -0.1840 ca         1 WL4      -0.112000
      8 C09        -35.0000    21.5250    -0.6090 ca         1 WL4      -0.089000
      9 C11        -34.4570    22.4760    -2.7820 ca         1 WL4       0.011000
     10 C12        -34.8550    22.8610    -4.1110 cg         1 WL4       0.323000
     11 C14        -33.1300    22.6760    -2.3530 ca         1 WL4      -0.137000
     12 N06        -31.3680    22.5400    -0.7000 ns         1 WL4      -0.151000
     13 N13        -35.1870    23.1710    -5.1870 n1         1 WL4      -0.452000
     14 O05        -31.1230    21.8040     1.4790 o          1 WL4      -0.573100
     15 H1         -36.4200    21.7390    -2.2230 ha         1 WL4       0.129000
     16 H2         -29.5030    24.7160     1.2560 hc         1 WL4       0.045367
     17 H3         -28.9920    23.4950     2.4430 hc         1 WL4       0.045367
     18 H4         -27.8090    24.1890     1.3120 hc         1 WL4       0.045367
     19 H5         -28.9810    23.1490    -0.6070 hc         1 WL4       0.051700
     20 H6         -27.1710    21.8210     0.4400 hc         1 WL4       0.045367
     21 H7         -28.3350    21.0600     1.5460 hc         1 WL4       0.045367
     22 H8         -28.4360    20.7530    -0.2020 hc         1 WL4       0.045367
     23 H9         -33.4100    21.4240     0.8250 ha         1 WL4       0.151000
     24 H10        -35.7250    21.0780     0.0690 ha         1 WL4       0.122000
     25 H11        -32.4080    23.1230    -3.0340 ha         1 WL4       0.121000
     26 H12        -30.8210    22.9600    -1.4400 hn         1 WL4       0.152000
@<TRIPOS>BOND
     1     1     8 ar  
     2     1     9 ar  
     3     1    15 1   
     4     2     3 1   
     5     2    16 1   
     6     2    17 1   
     7     2    18 1   
     8     3     4 1   
     9     3     5 1   
    10     3    19 1   
    11     4    20 1   
    12     4    21 1   
    13     4    22 1   
    14     5    12 1   
    15     5    14 2   
    16     6     7 ar  
    17     6    11 ar  
    18     6    12 1   
    19     7     8 ar  
    20     7    23 1   
    21     8    24 1   
    22     9    10 1   
    23     9    11 ar  
    24    10    13 3   
    25    11    25 1   
    26    12    26 1   
@<TRIPOS>SUBSTRUCTURE
     1 WL4         1 TEMP              0 ****  ****    0 ROOT
