@<TRIPOS>MOLECULE
WL4
   26    26     1     0     0
SMALL
bcc


@<TRIPOS>ATOM
      1 C10        -35.3130    21.8610    -1.8770 ca         1 WL4      -0.119000
      2 C01        -28.8080    23.5230     1.7690 c3         1 WL4      -0.084600
      3 C02        -29.2530    22.9190     0.4430 c3         1 WL4      -0.139700
      4 C03        -28.4270    21.6760     0.0970 c3         1 WL4      -0.084600
      5 C04        -30.7200    22.5320     0.4880 c          1 WL4       0.675100
      6 C07        -32.6970    22.4290    -1.0220 ca         1 WL4       0.074600
      7 C08        -33.6820    22.0600    -0.1030 ca         1 WL4      -0.130000
      8 C09        -34.9700    21.7810    -0.5400 ca         1 WL4      -0.107000
      9 C11        -34.3270    22.2330    -2.7890 ca         1 WL4       0.011000
     10 C12        -34.6450    22.3250    -4.1780 cg         1 WL4       0.233800
     11 C14        -33.0310    22.5130    -2.3730 ca         1 WL4      -0.155000
     12 N06        -31.3830    22.7490    -0.6820 ns         1 WL4      -0.477100
     13 N13        -34.9060    22.3930    -5.2980 n1         1 WL4      -0.362800
     14 O05        -31.2370    22.0380     1.4730 o          1 WL4      -0.573100
     15 H1         -36.3180    21.6430    -2.2110 ha         1 WL4       0.147000
     16 H2         -29.3890    24.4080     2.0280 hc         1 WL4       0.045367
     17 H3         -28.9030    22.8040     2.5820 hc         1 WL4       0.045367
     18 H4         -27.7610    23.8200     1.7060 hc         1 WL4       0.045367
     19 H5         -29.1040    23.6620    -0.3460 hc         1 WL4       0.051700
     20 H6         -27.3720    21.9400     0.0220 hc         1 WL4       0.045367
     21 H7         -28.5290    20.9140     0.8710 hc         1 WL4       0.045367
     22 H8         -28.7280    21.2370    -0.8550 hc         1 WL4       0.045367
     23 H9         -33.4600    21.9950     0.9490 ha         1 WL4       0.169000
     24 H10        -35.7200    21.5000     0.1880 ha         1 WL4       0.140000
     25 H11        -32.2810    22.7940    -3.1020 ha         1 WL4       0.139000
     26 H12        -30.8370    23.1480    -1.4310 hn         1 WL4       0.318500
@<TRIPOS>BOND
     1     1     8 ar  
     2     1     9 ar  
     3     1    15 1   
     4     2     3 1   
     5     2    16 1   
     6     2    17 1   
     7     2    18 1   
     8     3     4 1   
     9     3     5 1   
    10     3    19 1   
    11     4    20 1   
    12     4    21 1   
    13     4    22 1   
    14     5    12 1   
    15     5    14 2   
    16     6     7 ar  
    17     6    11 ar  
    18     6    12 1   
    19     7     8 ar  
    20     7    23 1   
    21     8    24 1   
    22     9    10 1   
    23     9    11 ar  
    24    10    13 3   
    25    11    25 1   
    26    12    26 1   
@<TRIPOS>SUBSTRUCTURE
     1 WL4         1 TEMP              0 ****  ****    0 ROOT
