@<TRIPOS>MOLECULE
WL6
   28    29     1     0     0
SMALL
No Charge or Current Charge


@<TRIPOS>ATOM
      1 C01          6.1060     7.7970    20.2270 cc         1 WL6       0.613500
      2 C02          5.2780     7.4710    21.4040 ca         1 WL6      -0.125500
      3 N03          5.5430     7.8870    18.9870 nc         1 WL6      -0.705000
      4 C05          3.8860     7.2400    21.2770 ca         1 WL6      -0.059000
      5 C06          5.8610     7.3830    22.6920 ca         1 WL6      -0.059000
      6 C07          6.5890     8.1680    18.2440 cd         1 WL6       0.529300
      7 O08          7.7480     8.2880    18.9520 os         1 WL6      -0.122700
      8 C10          5.0740     7.0740    23.8160 ca         1 WL6      -0.120000
      9 C11          6.5450     8.4470    16.7640 c3         1 WL6      -0.116700
     10 C13          7.7630     7.9090    15.9690 c3         1 WL6      -0.040400
     11 C15          7.9510     6.3680    15.9970 c3         1 WL6      -0.213400
     12 C16          6.8050     5.6450    15.2660 c          1 WL6       0.708000
     13 N04          7.4100     8.0220    20.2960 nd         1 WL6      -0.407300
     14 C09          3.1040     6.9310    22.4040 ca         1 WL6      -0.120000
     15 C12          3.6980     6.8480    23.6710 ca         1 WL6       0.132000
     16 Cl14         2.7180     6.4610    25.0790 cl         1 WL6      -0.231000
     17 O17          5.8440     5.2750    15.9210 o          1 WL6      -0.740000
     18 O18          6.8950     5.5010    14.0570 o          1 WL6      -0.740000
     19 H19          3.4000     7.2980    20.3050 ha         1 WL6       0.146000
     20 H20          6.9270     7.5540    22.8310 ha         1 WL6       0.146000
     21 H22          5.5330     7.0090    24.7990 ha         1 WL6       0.126500
     22 H24          5.6230     8.0350    16.3390 hc         1 WL6       0.076700
     23 H23          6.4860     9.5310    16.6180 hc         1 WL6       0.076700
     24 H25          7.6740     8.2360    14.9260 hc         1 WL6       0.033200
     25 H26          8.6740     8.3810    16.3580 hc         1 WL6       0.033200
     26 H27          8.8940     6.1930    15.4650 hc         1 WL6       0.026700
     27 H28          7.9880     6.0710    17.0510 hc         1 WL6       0.026700
     28 H21          2.0370     6.7560    22.2940 ha         1 WL6       0.126500
@<TRIPOS>BOND
     1     1     2 1   
     2     1     3 1   
     3     1    13 2   
     4     2     4 ar  
     5     2     5 ar  
     6     3     6 2   
     7     4    14 ar  
     8     4    19 1   
     9     5     8 ar  
    10     5    20 1   
    11     6     7 1   
    12     6     9 1   
    13     7    13 1   
    14     8    15 ar  
    15     8    21 1   
    16     9    10 1   
    17     9    22 1   
    18     9    23 1   
    19    10    11 1   
    20    10    24 1   
    21    10    25 1   
    22    11    12 1   
    23    11    26 1   
    24    11    27 1   
    25    12    17 1   
    26    12    18 1   
    27    14    15 ar  
    28    14    28 1   
    29    15    16 1   
@<TRIPOS>SUBSTRUCTURE
     1 WL6         1 TEMP              0 ****  ****    0 ROOT
