@<TRIPOS>MOLECULE
WL6
   28    29     1     0     0
SMALL
abcg2


@<TRIPOS>ATOM
      1 C01          6.1470     8.0510    20.1610 cc         1 WL6       0.613500
      2 C02          5.3470     7.5580    21.2840 ca         1 WL6      -0.125500
      3 N03          5.7330     7.9730    18.8480 nc         1 WL6      -0.705000
      4 C05          4.1160     6.9460    21.0400 ca         1 WL6      -0.059000
      5 C06          5.8010     7.6840    22.6010 ca         1 WL6      -0.059000
      6 C07          6.7170     8.5020    18.1850 cd         1 WL6       0.529300
      7 O08          7.7120     8.9070    18.9920 os         1 WL6      -0.122700
      8 C10          5.0410     7.2070    23.6560 ca         1 WL6      -0.120000
      9 C11          6.8820     8.6630    16.7210 c3         1 WL6      -0.116700
     10 C13          7.9050     7.6750    16.1280 c3         1 WL6      -0.040400
     11 C15          7.5300     6.2110    16.3360 c3         1 WL6      -0.213400
     12 C16          6.2230     5.7640    15.6470 c          1 WL6       0.708000
     13 N04          7.3250     8.6020    20.3060 nd         1 WL6      -0.407300
     14 C09          3.3460     6.4650    22.0910 ca         1 WL6      -0.120000
     15 C12          3.8180     6.6010    23.3890 ca         1 WL6       0.132000
     16 CL14         2.8560     5.9970    24.7170 cl         1 WL6      -0.231000
     17 O17          5.5710     4.8490    16.2150 o          1 WL6      -0.740000
     18 O18          5.9220     6.3170    14.5580 o          1 WL6      -0.740000
     19 H19          3.7610     6.8440    20.0250 ha         1 WL6       0.146000
     20 H20          6.7530     8.1560    22.8020 ha         1 WL6       0.146000
     21 H22          5.3910     7.3030    24.6740 ha         1 WL6       0.126500
     22 H24          5.9070     8.5120    16.2610 hc         1 WL6       0.076700
     23 H23          7.2020     9.6880    16.5180 hc         1 WL6       0.076700
     24 H25          7.9760     7.8860    15.0600 hc         1 WL6       0.033200
     25 H26          8.8860     7.8730    16.5650 hc         1 WL6       0.033200
     26 H27          8.3290     5.5820    15.9300 hc         1 WL6       0.026700
     27 H28          7.4630     5.9720    17.4000 hc         1 WL6       0.026700
     28 H21          2.3930     5.9910    21.9020 ha         1 WL6       0.126500
@<TRIPOS>BOND
     1     1     2 1   
     2     1     3 1   
     3     1    13 2   
     4     2     4 ar  
     5     2     5 ar  
     6     3     6 2   
     7     4    14 ar  
     8     4    19 1   
     9     5     8 ar  
    10     5    20 1   
    11     6     7 1   
    12     6     9 1   
    13     7    13 1   
    14     8    15 ar  
    15     8    21 1   
    16     9    10 1   
    17     9    22 1   
    18     9    23 1   
    19    10    11 1   
    20    10    24 1   
    21    10    25 1   
    22    11    12 1   
    23    11    26 1   
    24    11    27 1   
    25    12    17 1   
    26    12    18 1   
    27    14    15 ar  
    28    14    28 1   
    29    15    16 1   
@<TRIPOS>SUBSTRUCTURE
     1 WL6         1 TEMP              0 ****  ****    0 ROOT
