@<TRIPOS>MOLECULE
WL7
   29    29     1     0     0
SMALL
No Charge or Current Charge


@<TRIPOS>ATOM
      1 C10        -23.4990    22.8570   -28.8300 ca         1 WL7       0.035000
      2 C15        -23.6650    21.8890   -31.0640 ca         1 WL7       0.035000
      3 C01        -18.8680    22.4380   -29.4720 c3         1 WL7       0.164100
      4 C03        -20.5270    23.6780   -30.8580 c3         1 WL7       0.185800
      5 C04        -19.7930    25.0520   -30.8230 c3         1 WL7       0.169600
      6 C09        -22.9410    22.0930   -29.8720 ca         1 WL7      -0.377500
      7 C11        -24.7790    23.4140   -28.9830 ca         1 WL7      -0.217500
      8 C12        -25.4980    23.2110   -30.1660 ca         1 WL7       0.369000
      9 C14        -24.9450    22.4520   -31.2030 ca         1 WL7      -0.217500
     10 N02        -20.2920    22.7680   -29.6980 n3         1 WL7      -0.681500
     11 N13        -26.7410    23.7550   -30.3090 nv         1 WL7      -1.090000
     12 O05        -20.1670    25.8280   -29.6710 oh         1 WL7      -0.635000
     13 O07        -20.9540    20.5750   -30.8430 o          1 WL7      -0.535000
     14 O08        -21.2230    20.8650   -28.3050 o          1 WL7      -0.535000
     15 S06        -21.2970    21.3910   -29.6730 sy         1 WL7       1.153600
     16 H1         -22.9430    23.0250   -27.9080 ha         1 WL7       0.131500
     17 H2         -23.2460    21.3020   -31.8800 ha         1 WL7       0.131500
     18 H3         -18.7430    21.8220   -28.5710 h1         1 WL7       0.050367
     19 H4         -18.4520    21.8840   -30.3250 h1         1 WL7       0.050367
     20 H5         -18.2670    23.3440   -29.3250 h1         1 WL7       0.050367
     21 H6         -20.2380    23.1700   -31.7870 h1         1 WL7       0.058200
     22 H7         -21.5940    23.9120   -30.9520 h1         1 WL7       0.058200
     23 H8         -18.7070    24.8900   -30.8370 h1         1 WL7       0.016200
     24 H9         -20.0470    25.6020   -31.7380 h1         1 WL7       0.016200
     25 H10        -25.2070    24.0030   -28.1770 ha         1 WL7       0.116000
     26 H11        -25.5020    22.2940   -32.1220 ha         1 WL7       0.116000
     27 H12        -27.0550    24.4540   -29.6390 hn         1 WL7       0.471500
     28 H13        -27.1770    23.7670   -31.2290 hn         1 WL7       0.471500
     29 H14        -19.6330    26.6520   -29.6960 ho         1 WL7       0.440000
@<TRIPOS>BOND
     1     1     6 ar  
     2     1     7 ar  
     3     1    16 1   
     4     2     6 ar  
     5     2     9 ar  
     6     2    17 1   
     7     3    10 1   
     8     3    18 1   
     9     3    19 1   
    10     3    20 1   
    11     4     5 1   
    12     4    10 1   
    13     4    21 1   
    14     4    22 1   
    15     5    12 1   
    16     5    23 1   
    17     5    24 1   
    18     6    15 1   
    19     7     8 ar  
    20     7    25 1   
    21     8     9 ar  
    22     8    11 1   
    23     9    26 1   
    24    10    15 1   
    25    11    27 1   
    26    11    28 1   
    27    12    29 1   
    28    13    15 2   
    29    14    15 2   
@<TRIPOS>SUBSTRUCTURE
     1 WL7         1 TEMP              0 ****  ****    0 ROOT
