@<TRIPOS>MOLECULE
WL7
   29    29     1     0     0
SMALL
bcc


@<TRIPOS>ATOM
      1 C10        -23.7410    23.1840   -29.0360 ca         1 WL7       0.017000
      2 C15        -23.2970    21.4410   -30.6420 ca         1 WL7       0.017000
      3 C01        -20.0350    22.6140   -31.1680 c3         1 WL7       0.164100
      4 C03        -20.5210    24.4640   -29.6320 c3         1 WL7       0.185800
      5 C04        -19.2890    25.3030   -29.9020 c3         1 WL7       0.146400
      6 C09        -22.8840    22.2170   -29.5600 ca         1 WL7      -0.377500
      7 C11        -24.9900    23.3730   -29.5860 ca         1 WL7      -0.235500
      8 C12        -25.4220    22.6000   -30.6780 ca         1 WL7       0.230600
      9 C14        -24.5460    21.6300   -31.1940 ca         1 WL7      -0.235500
     10 N02        -20.2680    23.0300   -29.7910 n3         1 WL7      -0.681500
     11 N13        -26.6710    22.7560   -31.1900 nv         1 WL7      -0.841200
     12 O05        -18.2670    24.9260   -29.0130 oh         1 WL7      -0.572800
     13 O07        -20.8170    20.6690   -29.1720 o          1 WL7      -0.605800
     14 O08        -21.2570    22.5250   -27.5420 o          1 WL7      -0.605800
     15 S06        -21.2640    22.0300   -28.9100 sy         1 WL7       1.295200
     16 H1         -23.4440    23.7870   -28.1880 ha         1 WL7       0.149500
     17 H2         -22.6490    20.6810   -31.0570 ha         1 WL7       0.149500
     18 H3         -19.7430    21.5690   -31.2110 h1         1 WL7       0.050367
     19 H4         -20.9080    22.7710   -31.8110 h1         1 WL7       0.050367
     20 H5         -19.2100    23.1970   -31.5710 h1         1 WL7       0.050367
     21 H6         -21.3200    24.7980   -30.3050 h1         1 WL7       0.058200
     22 H7         -20.8520    24.6580   -28.6130 h1         1 WL7       0.058200
     23 H8         -18.9760    25.2050   -30.9480 h1         1 WL7       0.016200
     24 H9         -19.5910    26.3500   -29.7680 h1         1 WL7       0.016200
     25 H10        -25.6500    24.1210   -29.1650 ha         1 WL7       0.134000
     26 H11        -24.8570    21.0190   -32.0320 ha         1 WL7       0.134000
     27 H12        -27.1700    23.6020   -30.9720 hn         1 WL7       0.416300
     28 H13        -26.8600    22.3890   -32.1070 hn         1 WL7       0.416300
     29 H14        -17.5010    25.4790   -29.1900 ho         1 WL7       0.401000
@<TRIPOS>BOND
     1     1     6 ar  
     2     1     7 ar  
     3     1    16 1   
     4     2     6 ar  
     5     2     9 ar  
     6     2    17 1   
     7     3    10 1   
     8     3    18 1   
     9     3    19 1   
    10     3    20 1   
    11     4     5 1   
    12     4    10 1   
    13     4    21 1   
    14     4    22 1   
    15     5    12 1   
    16     5    23 1   
    17     5    24 1   
    18     6    15 1   
    19     7     8 ar  
    20     7    25 1   
    21     8     9 ar  
    22     8    11 1   
    23     9    26 1   
    24    10    15 1   
    25    11    27 1   
    26    11    28 1   
    27    12    29 1   
    28    13    15 2   
    29    14    15 2   
@<TRIPOS>SUBSTRUCTURE
     1 WL7         1 TEMP              0 ****  ****    0 ROOT
