@<TRIPOS>MOLECULE
WLA
   33    34     1     0     0
SMALL
abcg2


@<TRIPOS>ATOM
      1 C10        -32.4670    -6.1580   -20.6290 c6         1 WLA       0.156800
      2 C13        -31.0460    -7.5170   -18.8440 c6         1 WLA       0.176300
      3 C01        -29.6270    -8.6270   -20.4900 c3         1 WLA       0.182800
      4 C02        -28.3660    -7.7350   -20.5010 c6         1 WLA      -0.101700
      5 C03        -27.2130    -8.3580   -19.7150 c6         1 WLA      -0.108900
      6 C04        -25.9730    -7.4830   -19.7930 c6         1 WLA       0.155100
      7 C06        -26.5900    -6.6080   -21.8760 c6         1 WLA       0.155100
      8 C07        -27.8680    -7.4300   -21.9150 c6         1 WLA      -0.108900
      9 C09        -31.2700    -6.9570   -21.1590 c6         1 WLA       0.176300
     10 C12        -32.5400    -7.3280   -18.5420 c6         1 WLA       0.156800
     11 N08        -30.8880    -7.9810   -20.2040 n3         1 WLA      -0.720600
     12 N11        -33.2630    -7.0070   -19.7670 n7         1 WLA      -0.842400
     13 O05        -25.5750    -7.2410   -21.1260 os         1 WLA      -0.450000
     14 H1         -32.1090    -5.2500   -20.1190 h1         1 WLA       0.030200
     15 H2         -33.0770    -5.8160   -21.4670 h1         1 WLA       0.030200
     16 H3         -30.6310    -8.2610   -18.1610 h1         1 WLA       0.030700
     17 H4         -30.4960    -6.5820   -18.6440 h1         1 WLA       0.030700
     18 H5         -29.7180    -9.1340   -21.4580 h1         1 WLA       0.054200
     19 H6         -29.5000    -9.4200   -19.7460 h1         1 WLA       0.054200
     20 H7         -28.6120    -6.7800   -20.0150 hc         1 WLA       0.045700
     21 H8         -27.4920    -8.4910   -18.6660 hc         1 WLA       0.049450
     22 H9         -26.9880    -9.3540   -20.1140 hc         1 WLA       0.049450
     23 H10        -25.1270    -7.9550   -19.2910 h1         1 WLA       0.042200
     24 H11        -26.1710    -6.5300   -19.2770 h1         1 WLA       0.042200
     25 H12        -26.1930    -6.4570   -22.8820 h1         1 WLA       0.042200
     26 H13        -26.8100    -5.6140   -21.4570 h1         1 WLA       0.042200
     27 H14        -28.6210    -6.8900   -22.4950 hc         1 WLA       0.049450
     28 H15        -27.6800    -8.3720   -22.4420 hc         1 WLA       0.049450
     29 H16        -31.5180    -7.4410   -22.1090 h1         1 WLA       0.030700
     30 H17        -30.4590    -6.2430   -21.3690 h1         1 WLA       0.030700
     31 H18        -32.6420    -6.5540   -17.7700 h1         1 WLA       0.030200
     32 H19        -32.9520    -8.2500   -18.1230 h1         1 WLA       0.030200
     33 H21        -34.1330    -6.5480   -19.5360 hn         1 WLA       0.407000
@<TRIPOS>BOND
     1     1     9 1   
     2     1    12 1   
     3     1    14 1   
     4     1    15 1   
     5     2    10 1   
     6     2    11 1   
     7     2    16 1   
     8     2    17 1   
     9     3     4 1   
    10     3    11 1   
    11     3    18 1   
    12     3    19 1   
    13     4     5 1   
    14     4     8 1   
    15     4    20 1   
    16     5     6 1   
    17     5    21 1   
    18     5    22 1   
    19     6    13 1   
    20     6    23 1   
    21     6    24 1   
    22     7     8 1   
    23     7    13 1   
    24     7    25 1   
    25     7    26 1   
    26     8    27 1   
    27     8    28 1   
    28     9    11 1   
    29     9    29 1   
    30     9    30 1   
    31    10    12 1   
    32    10    31 1   
    33    10    32 1   
    34    12    33 1   
@<TRIPOS>SUBSTRUCTURE
     1 WLA         1 TEMP              0 ****  ****    0 ROOT
