@<TRIPOS>MOLECULE
WLA
   33    34     1     0     0
SMALL
No Charge or Current Charge


@<TRIPOS>ATOM
      1 C10        -32.8180    -6.6220   -20.9870 c6         1 WLA       0.156800
      2 C13        -31.1250    -7.6790   -18.7600 c6         1 WLA       0.176300
      3 C01        -29.5640    -8.7090   -20.4500 c3         1 WLA       0.182800
      4 C02        -28.2870    -7.8000   -20.3750 c6         1 WLA      -0.101700
      5 C03        -27.0450    -8.6230   -19.9250 c6         1 WLA      -0.108900
      6 C04        -25.7700    -7.7450   -19.9070 c6         1 WLA       0.155100
      7 C06        -26.6410    -6.2820   -21.6210 c6         1 WLA       0.155100
      8 C07        -27.9600    -7.0860   -21.7240 c6         1 WLA      -0.108900
      9 C09        -31.2980    -6.9960   -21.1330 c6         1 WLA       0.176300
     10 C12        -32.3920    -6.7720   -18.5460 c6         1 WLA       0.156800
     11 N08        -30.8840    -8.0730   -20.1890 n3         1 WLA      -0.720600
     12 N11        -33.4020    -6.8900   -19.6350 n7         1 WLA      -0.842400
     13 O05        -25.5650    -7.1500   -21.2060 os         1 WLA      -0.450000
     14 H1         -32.9320    -5.5540   -21.2260 h1         1 WLA       0.030200
     15 H2         -33.4030    -7.1800   -21.7330 h1         1 WLA       0.030200
     16 H3         -31.2460    -8.5910   -18.1570 h1         1 WLA       0.030700
     17 H4         -30.2600    -7.1460   -18.3420 h1         1 WLA       0.030700
     18 H5         -29.5750    -9.1960   -21.4350 h1         1 WLA       0.054200
     19 H6         -29.4340    -9.5210   -19.7200 h1         1 WLA       0.054200
     20 H7         -28.4690    -7.0320   -19.6120 hc         1 WLA       0.045700
     21 H8         -27.2110    -9.0430   -18.9230 hc         1 WLA       0.049450
     22 H9         -26.8910    -9.4750   -20.6010 hc         1 WLA       0.049450
     23 H10        -24.8940    -8.3600   -19.6530 h1         1 WLA       0.042200
     24 H11        -25.8620    -6.9500   -19.1520 h1         1 WLA       0.042200
     25 H12        -26.3910    -5.8450   -22.5980 h1         1 WLA       0.042200
     26 H13        -26.7480    -5.4620   -20.8960 h1         1 WLA       0.042200
     27 H14        -28.7670    -6.4040   -22.0170 hc         1 WLA       0.049450
     28 H15        -27.8700    -7.8270   -22.5300 hc         1 WLA       0.049450
     29 H16        -31.1030    -7.2890   -22.1750 h1         1 WLA       0.030700
     30 H17        -30.7060    -6.0910   -20.9350 h1         1 WLA       0.030700
     31 H18        -32.0620    -5.7230   -18.4960 h1         1 WLA       0.030200
     32 H19        -32.8560    -7.0090   -17.5770 h1         1 WLA       0.030200
     33 H21        -34.1850    -6.2460   -19.4640 hn         1 WLA       0.407000
@<TRIPOS>BOND
     1     1     9 1   
     2     1    12 1   
     3     1    14 1   
     4     1    15 1   
     5     2    10 1   
     6     2    11 1   
     7     2    16 1   
     8     2    17 1   
     9     3     4 1   
    10     3    11 1   
    11     3    18 1   
    12     3    19 1   
    13     4     5 1   
    14     4     8 1   
    15     4    20 1   
    16     5     6 1   
    17     5    21 1   
    18     5    22 1   
    19     6    13 1   
    20     6    23 1   
    21     6    24 1   
    22     7     8 1   
    23     7    13 1   
    24     7    25 1   
    25     7    26 1   
    26     8    27 1   
    27     8    28 1   
    28     9    11 1   
    29     9    29 1   
    30     9    30 1   
    31    10    12 1   
    32    10    31 1   
    33    10    32 1   
    34    12    33 1   
@<TRIPOS>SUBSTRUCTURE
     1 WLA         1 TEMP              0 ****  ****    0 ROOT
