@<TRIPOS>MOLECULE
WLB
   42    44     1     0     0
SMALL
abcg2


@<TRIPOS>ATOM
      1 C1           5.8790     7.1860    17.3400 ca         1 WLB       0.082100
      2 C2           6.6120     7.7480    18.4020 ca         1 WLB       0.086100
      3 C3           6.2280     7.4490    16.0220 ca         1 WLB      -0.079600
      4 O4           4.8530     6.3130    17.6260 os         1 WLB      -0.339100
      5 O5           6.1830     7.4110    19.6460 os         1 WLB      -0.349100
      6 C6           7.6980     8.5750    18.1310 ca         1 WLB      -0.221000
      7 C7           7.3340     8.2640    15.7610 ca         1 WLB      -0.118000
      8 C8           5.4110     6.8600    14.8790 c          1 WLB       0.719600
      9 C9           3.6230     6.9410    18.0670 c3         1 WLB       0.203900
     10 C10          6.7780     8.0480    20.7900 c3         1 WLB       0.207900
     11 C11          8.0500     8.8290    16.8050 ca         1 WLB      -0.108000
     12 O12          5.9750     5.9810    14.1820 o          1 WLB      -0.714000
     13 O13          4.2530     7.3200    14.7210 o          1 WLB      -0.714000
     14 C14          2.8280     5.9390    18.8490 ca         1 WLB      -0.069300
     15 C15          5.9540     7.6370    21.9730 ca         1 WLB      -0.085300
     16 C16          3.1420     5.6810    20.1850 ca         1 WLB      -0.086000
     17 C17          1.7830     5.2350    18.2510 ca         1 WLB      -0.086000
     18 C18          6.2130     6.4370    22.6340 ca         1 WLB      -0.085500
     19 C19          4.8610     8.4080    22.3660 ca         1 WLB      -0.085500
     20 C20          2.4240     4.7380    20.9100 ca         1 WLB      -0.128500
     21 C21          1.0610     4.2900    18.9740 ca         1 WLB      -0.128500
     22 C22          5.3860     6.0080    23.6660 ca         1 WLB      -0.119000
     23 C23          4.0320     7.9830    23.3990 ca         1 WLB      -0.119000
     24 C24          1.3810     4.0400    20.3050 ca         1 WLB      -0.123000
     25 C25          4.2920     6.7790    24.0470 ca         1 WLB      -0.110000
     26 H26          8.2710     9.0110    18.9360 ha         1 WLB       0.090000
     27 H27          7.6200     8.4590    14.7340 ha         1 WLB       0.118000
     28 H28          3.8680     7.8030    18.6870 h1         1 WLB       0.051200
     29 H29          3.0800     7.2770    17.1810 h1         1 WLB       0.051200
     30 H30          7.8160     7.7220    20.8900 h1         1 WLB       0.036700
     31 H31          6.7570     9.1320    20.6550 h1         1 WLB       0.036700
     32 H32          8.8980     9.4700    16.5970 ha         1 WLB       0.087000
     33 H34          3.9510     6.2250    20.6540 ha         1 WLB       0.126500
     34 H35          1.5340     5.4320    17.2140 ha         1 WLB       0.126500
     35 H36          7.0600     5.8330    22.3310 ha         1 WLB       0.117000
     36 H37          4.6530     9.3390    21.8520 ha         1 WLB       0.117000
     37 H38          2.6750     4.5510    21.9460 ha         1 WLB       0.099000
     38 H39          0.2500     3.7510    18.5000 ha         1 WLB       0.099000
     39 H40          5.5920     5.0720    24.1690 ha         1 WLB       0.108000
     40 H41          3.1840     8.5870    23.6950 ha         1 WLB       0.108000
     41 H42          0.8190     3.3060    20.8690 ha         1 WLB       0.093000
     42 H43          3.6450     6.4440    24.8480 ha         1 WLB       0.104000
@<TRIPOS>BOND
     1     1     2 ar  
     2     1     3 ar  
     3     1     4 1   
     4     2     5 1   
     5     2     6 ar  
     6     3     7 ar  
     7     3     8 1   
     8     4     9 1   
     9     5    10 1   
    10     6    11 ar  
    11     6    26 1   
    12     7    11 ar  
    13     7    27 1   
    14     8    12 1   
    15     8    13 1   
    16     9    14 1   
    17     9    28 1   
    18     9    29 1   
    19    10    15 1   
    20    10    30 1   
    21    10    31 1   
    22    11    32 1   
    23    14    16 ar  
    24    14    17 ar  
    25    15    18 ar  
    26    15    19 ar  
    27    16    20 ar  
    28    16    33 1   
    29    17    21 ar  
    30    17    34 1   
    31    18    22 ar  
    32    18    35 1   
    33    19    23 ar  
    34    19    36 1   
    35    20    24 ar  
    36    20    37 1   
    37    21    24 ar  
    38    21    38 1   
    39    22    25 ar  
    40    22    39 1   
    41    23    25 ar  
    42    23    40 1   
    43    24    41 1   
    44    25    42 1   
@<TRIPOS>SUBSTRUCTURE
     1 WLB         1 TEMP              0 ****  ****    0 ROOT
