@<TRIPOS>MOLECULE
WLB
   42    44     1     0     0
SMALL
No Charge or Current Charge


@<TRIPOS>ATOM
      1 C1           5.8140     7.2100    17.3140 ca         1 WLB       0.082100
      2 C2           6.5480     7.8030    18.3730 ca         1 WLB       0.086100
      3 C3           6.2370     7.3740    15.9770 ca         1 WLB      -0.079600
      4 O4           4.7160     6.4210    17.5900 os         1 WLB      -0.339100
      5 O5           6.1380     7.5770    19.6750 os         1 WLB      -0.349100
      6 C6           7.6900     8.5820    18.0820 ca         1 WLB      -0.221000
      7 C7           7.3860     8.1480    15.7060 ca         1 WLB      -0.118000
      8 C8           5.4780     6.7420    14.8380 c          1 WLB       0.719600
      9 C9           3.5360     7.0160    18.1610 c3         1 WLB       0.203900
     10 C10          6.7880     8.1580    20.8150 c3         1 WLB       0.207900
     11 C11          8.1030     8.7520    16.7510 ca         1 WLB      -0.108000
     12 O12          6.0930     5.9990    14.0830 o          1 WLB      -0.714000
     13 O13          4.3160     7.0760    14.6520 o          1 WLB      -0.714000
     14 C14          2.6980     5.9190    18.8030 ca         1 WLB      -0.069300
     15 C15          6.0230     7.7160    22.0560 ca         1 WLB      -0.085300
     16 C16          2.9280     5.5510    20.1440 ca         1 WLB      -0.086000
     17 C17          1.6890     5.2650    18.0680 ca         1 WLB      -0.086000
     18 C18          6.4700     6.6170    22.8160 ca         1 WLB      -0.085500
     19 C19          4.8450     8.3880    22.4370 ca         1 WLB      -0.085500
     20 C20          2.1540     4.5430    20.7450 ca         1 WLB      -0.128500
     21 C21          0.9160     4.2560    18.6700 ca         1 WLB      -0.128500
     22 C22          5.7470     6.1980    23.9470 ca         1 WLB      -0.119000
     23 C23          4.1230     7.9680    23.5670 ca         1 WLB      -0.119000
     24 C24          1.1480     3.8960    20.0080 ca         1 WLB      -0.123000
     25 C25          4.5740     6.8730    24.3230 ca         1 WLB      -0.110000
     26 H26          8.2730     9.0500    18.8700 ha         1 WLB       0.090000
     27 H27          7.7180     8.2820    14.6790 ha         1 WLB       0.118000
     28 H28          3.7900     7.7590    18.9270 h1         1 WLB       0.051200
     29 H29          2.9540     7.5320    17.3870 h1         1 WLB       0.051200
     30 H30          7.8310     7.8230    20.8810 h1         1 WLB       0.036700
     31 H31          6.7790     9.2540    20.7510 h1         1 WLB       0.036700
     32 H32          8.9850     9.3480    16.5280 ha         1 WLB       0.087000
     33 H34          3.7080     6.0460    20.7190 ha         1 WLB       0.126500
     34 H35          1.5060     5.5390    17.0310 ha         1 WLB       0.126500
     35 H36          7.3730     6.0840    22.5270 ha         1 WLB       0.117000
     36 H37          4.4860     9.2320    21.8510 ha         1 WLB       0.117000
     37 H38          2.3360     4.2630    21.7800 ha         1 WLB       0.099000
     38 H39          0.1380     3.7550    18.0990 ha         1 WLB       0.099000
     39 H40          6.0960     5.3480    24.5300 ha         1 WLB       0.108000
     40 H41          3.2130     8.4890    23.8550 ha         1 WLB       0.108000
     41 H42          0.5490     3.1150    20.4730 ha         1 WLB       0.093000
     42 H43          4.0140     6.5470    25.1970 ha         1 WLB       0.104000
@<TRIPOS>BOND
     1     1     2 ar  
     2     1     3 ar  
     3     1     4 1   
     4     2     5 1   
     5     2     6 ar  
     6     3     7 ar  
     7     3     8 1   
     8     4     9 1   
     9     5    10 1   
    10     6    11 ar  
    11     6    26 1   
    12     7    11 ar  
    13     7    27 1   
    14     8    12 1   
    15     8    13 1   
    16     9    14 1   
    17     9    28 1   
    18     9    29 1   
    19    10    15 1   
    20    10    30 1   
    21    10    31 1   
    22    11    32 1   
    23    14    16 ar  
    24    14    17 ar  
    25    15    18 ar  
    26    15    19 ar  
    27    16    20 ar  
    28    16    33 1   
    29    17    21 ar  
    30    17    34 1   
    31    18    22 ar  
    32    18    35 1   
    33    19    23 ar  
    34    19    36 1   
    35    20    24 ar  
    36    20    37 1   
    37    21    24 ar  
    38    21    38 1   
    39    22    25 ar  
    40    22    39 1   
    41    23    25 ar  
    42    23    40 1   
    43    24    41 1   
    44    25    42 1   
@<TRIPOS>SUBSTRUCTURE
     1 WLB         1 TEMP              0 ****  ****    0 ROOT
