@<TRIPOS>MOLECULE
WLD
   27    27     1     0     0
SMALL
abcg2


@<TRIPOS>ATOM
      1 C10        -26.6650    -8.3470   -19.8990 ca         1 WLD      -0.106000
      2 C13        -29.1160    -8.8640   -21.0490 ca         1 WLD       0.137000
      3 C01        -34.6020    -5.9690   -19.1290 c3         1 WLD      -0.093100
      4 C02        -33.1240    -5.9980   -19.4620 c3         1 WLD       0.175300
      5 C04        -32.3920    -7.0960   -18.6950 c3         1 WLD       0.117800
      6 C06        -30.3610    -8.4410   -18.8930 c3         1 WLD       0.214100
      7 C07        -29.0900    -8.5420   -19.6900 ca         1 WLD      -0.070300
      8 C08        -27.8320    -8.2720   -19.1520 ca         1 WLD       0.137000
      9 C11        -26.7420    -8.6920   -21.2370 ca         1 WLD      -0.090000
     10 C12        -27.9710    -8.9510   -21.8220 ca         1 WLD      -0.106000
     11 N05        -31.0350    -7.1940   -19.2040 n7         1 WLD      -0.886400
     12 O03        -32.9550    -6.2070   -20.8480 oh         1 WLD      -0.667000
     13 CL0        -27.6810    -7.8050   -17.4860 cl         1 WLD      -0.193500
     14 CL1        -30.6340    -9.1820   -21.8230 cl         1 WLD      -0.193500
     15 H1         -25.7090    -8.1340   -19.4410 ha         1 WLD       0.134500
     16 H3         -35.1150    -5.1800   -19.6800 hc         1 WLD       0.041367
     17 H4         -35.0790    -6.9210   -19.3720 hc         1 WLD       0.041367
     18 H5         -32.6850    -5.0300   -19.1680 h1         1 WLD       0.025700
     19 H6         -32.4490    -6.9090   -17.6160 h1         1 WLD       0.041700
     20 H7         -32.8930    -8.0510   -18.8830 h1         1 WLD       0.041700
     21 H8         -31.0230    -9.2640   -19.1690 h1         1 WLD       0.052700
     22 H9         -30.1520    -8.5660   -17.8260 h1         1 WLD       0.052700
     23 H10        -25.8390    -8.7580   -21.8300 ha         1 WLD       0.124000
     24 H11        -28.0380    -9.2120   -22.8690 ha         1 WLD       0.134500
     25 H12        -30.4830    -6.4160   -18.8620 hn         1 WLD       0.421000
     26 H14        -32.0700    -6.5980   -20.9270 ho         1 WLD       0.470000
     27 H2         -34.7490    -5.7770   -18.0660 hc         1 WLD       0.041367
@<TRIPOS>BOND
     1     1     8 ar  
     2     1     9 ar  
     3     1    15 1   
     4     2     7 ar  
     5     2    10 ar  
     6     2    14 1   
     7     3     4 1   
     8     3    16 1   
     9     3    17 1   
    10     3    27 1   
    11     4     5 1   
    12     4    12 1   
    13     4    18 1   
    14     5    11 1   
    15     5    19 1   
    16     5    20 1   
    17     6     7 1   
    18     6    11 1   
    19     6    21 1   
    20     6    22 1   
    21     7     8 ar  
    22     8    13 1   
    23     9    10 ar  
    24     9    23 1   
    25    10    24 1   
    26    11    25 1   
    27    12    26 1   
@<TRIPOS>SUBSTRUCTURE
     1 WLD         1 TEMP              0 ****  ****    0 ROOT
