@<TRIPOS>MOLECULE
WLD
   27    27     1     0     0
SMALL
No Charge or Current Charge


@<TRIPOS>ATOM
      1 C10        -26.6970    -8.1360   -19.9230 ca         1 WLD      -0.106000
      2 C13        -28.9960    -9.1980   -21.1380 ca         1 WLD       0.137000
      3 C01        -34.6760    -5.8530   -19.0140 c3         1 WLD      -0.093100
      4 C02        -33.1510    -5.8440   -19.2320 c3         1 WLD       0.175300
      5 C04        -32.4380    -7.1170   -18.7030 c3         1 WLD       0.117800
      6 C06        -30.4390    -8.5630   -19.1180 c3         1 WLD       0.214100
      7 C07        -29.0990    -8.6180   -19.8500 ca         1 WLD      -0.070300
      8 C08        -27.9320    -8.0830   -19.2530 ca         1 WLD       0.137000
      9 C11        -26.6060    -8.7200   -21.1950 ca         1 WLD      -0.090000
     10 C12        -27.7570    -9.2480   -21.8010 ca         1 WLD      -0.106000
     11 N05        -31.1150    -7.2740   -19.3700 n7         1 WLD      -0.886400
     12 O03        -32.8500    -5.7700   -20.6220 oh         1 WLD      -0.667000
     13 Cl0        -27.9780    -7.3210   -17.6610 cl         1 WLD      -0.193500
     14 Cl1        -30.4010    -9.8730   -21.9680 cl         1 WLD      -0.193500
     15 H1         -25.8090    -7.7210   -19.4520 ha         1 WLD       0.134500
     16 H3         -35.1250    -4.9300   -19.4020 hc         1 WLD       0.041367
     17 H4         -35.1410    -6.7050   -19.5250 hc         1 WLD       0.041367
     18 H5         -32.7240    -4.9720   -18.7180 h1         1 WLD       0.025700
     19 H6         -32.3290    -7.0540   -17.6110 h1         1 WLD       0.041700
     20 H7         -33.0720    -7.9880   -18.9220 h1         1 WLD       0.041700
     21 H8         -31.0740    -9.3990   -19.4370 h1         1 WLD       0.052700
     22 H9         -30.2740    -8.7080   -18.0420 h1         1 WLD       0.052700
     23 H10        -25.6490    -8.7590   -21.7120 ha         1 WLD       0.124000
     24 H11        -27.6910    -9.6960   -22.7890 ha         1 WLD       0.134500
     25 H12        -30.4900    -6.5310   -19.0240 hn         1 WLD       0.421000
     26 H14        -32.0620    -6.3730   -20.6670 ho         1 WLD       0.470000
     27 H2         -34.9090    -5.9230   -17.9450 hc         1 WLD       0.041367
@<TRIPOS>BOND
     1     1     8 ar  
     2     1     9 ar  
     3     1    15 1   
     4     2     7 ar  
     5     2    10 ar  
     6     2    14 1   
     7     3     4 1   
     8     3    16 1   
     9     3    17 1   
    10     3    27 1   
    11     4     5 1   
    12     4    12 1   
    13     4    18 1   
    14     5    11 1   
    15     5    19 1   
    16     5    20 1   
    17     6     7 1   
    18     6    11 1   
    19     6    21 1   
    20     6    22 1   
    21     7     8 ar  
    22     8    13 1   
    23     9    10 ar  
    24     9    23 1   
    25    10    24 1   
    26    11    25 1   
    27    12    26 1   
@<TRIPOS>SUBSTRUCTURE
     1 WLD         1 TEMP              0 ****  ****    0 ROOT
