@<TRIPOS>MOLECULE
WLE
   37    38     1     0     0
SMALL
abcg2


@<TRIPOS>ATOM
      1 C1          14.4230     8.5170     9.5170 ca         1 WLE       0.164100
      2 C10         14.9380     4.3310    15.0500 ca         1 WLE       0.030500
      3 C11         15.6480     5.3970    14.5170 ca         1 WLE      -0.190500
      4 C12         17.7130     4.2360    14.9950 ca         1 WLE      -0.190500
      5 C13         17.0060     3.1860    15.5420 ca         1 WLE       0.030500
      6 C14         15.6120     3.2310    15.5620 ca         1 WLE      -0.318500
      7 C2          14.6080     9.8960     9.6190 ca         1 WLE      -0.214000
      8 C3          15.4420    10.3850    10.6210 ca         1 WLE      -0.049000
      9 C4          16.0900     9.5460    11.5140 ca         1 WLE      -0.162000
     10 C5          15.9020     8.1640    11.3990 ca         1 WLE       0.020000
     11 C6          15.0720     7.6570    10.4030 ca         1 WLE      -0.201000
     12 C7          12.9500     8.7450     7.6460 c3         1 WLE       0.149900
     13 C8          17.5660     7.4190    13.0860 c          1 WLE       0.669100
     14 C9          17.0460     5.3550    14.4710 ca         1 WLE       0.048000
     15 N1          16.4770     7.2350    12.2840 ns         1 WLE      -0.159000
     16 N2          17.8330     6.3980    13.9830 ns         1 WLE      -0.179000
     17 N3          15.1850     0.6020    15.4590 n8         1 WLE      -1.021100
     18 O1          13.6350     7.9160     8.5850 os         1 WLE      -0.352100
     19 O2          18.3160     8.3870    13.0280 o          1 WLE      -0.598100
     20 O3          13.2990     2.2020    16.1580 o          1 WLE      -0.552500
     21 O4          15.2060     1.7030    17.6650 o          1 WLE      -0.552500
     22 H10         13.8580     4.3690    15.0860 ha         1 WLE       0.139000
     23 H11         15.1080     6.2650    14.1700 ha         1 WLE       0.128500
     24 H12         18.7950     4.2050    14.9680 ha         1 WLE       0.128500
     25 H13         17.5330     2.3310    15.9430 ha         1 WLE       0.139000
     26 H1          14.1180    10.5800     8.9430 ha         1 WLE       0.120000
     27 H2          15.5830    11.4550    10.7090 ha         1 WLE       0.116000
     28 H3          16.7270     9.9470    12.2850 ha         1 WLE       0.145000
     29 H4          14.9190     6.5890    10.3070 ha         1 WLE       0.125000
     30 H5          12.3890     8.0690     7.0070 h1         1 WLE       0.043367
     31 H6          12.2630     9.4270     8.1530 h1         1 WLE       0.043367
     32 H7          13.6560     9.3210     7.0430 h1         1 WLE       0.043367
     33 H8          16.0930     6.3030    12.2400 hn         1 WLE       0.162000
     34 H9          18.7790     6.4420    14.3360 hn         1 WLE       0.175000
     35 H15         15.1120    -0.2430    16.0180 hn         1 WLE       0.478500
     36 H14         14.6930     0.5150    14.5750 hn         1 WLE       0.478500
     37 S1          14.7090     1.9200    16.3220 sy         1 WLE       1.161600
@<TRIPOS>BOND
     1     1     7 ar  
     2     1    11 ar  
     3     1    18 1   
     4     2     3 ar  
     5     2     6 ar  
     6     2    22 1   
     7     3    14 ar  
     8     3    23 1   
     9     4     5 ar  
    10     4    14 ar  
    11     4    24 1   
    12     5     6 ar  
    13     5    25 1   
    14     6    37 1   
    15     7     8 ar  
    16     7    26 1   
    17     8     9 ar  
    18     8    27 1   
    19     9    10 ar  
    20     9    28 1   
    21    10    11 ar  
    22    10    15 1   
    23    11    29 1   
    24    12    18 1   
    25    12    30 1   
    26    12    31 1   
    27    12    32 1   
    28    13    15 1   
    29    13    16 1   
    30    13    19 2   
    31    14    16 1   
    32    15    33 1   
    33    16    34 1   
    34    17    35 1   
    35    17    36 1   
    36    17    37 1   
    37    20    37 2   
    38    21    37 2   
@<TRIPOS>SUBSTRUCTURE
     1 WLE         1 TEMP              0 ****  ****    0 ROOT
