@<TRIPOS>MOLECULE
WLE
   37    38     1     0     0
SMALL
No Charge or Current Charge


@<TRIPOS>ATOM
      1 C1          14.3870     8.3330     9.7140 ca         1 WLE       0.164100
      2 C10         14.9670     4.3990    15.0940 ca         1 WLE       0.030500
      3 C11         15.6670     5.5680    14.7490 ca         1 WLE      -0.190500
      4 C12         17.7740     4.4220    15.1270 ca         1 WLE      -0.190500
      5 C13         17.0810     3.2480    15.4710 ca         1 WLE       0.030500
      6 C14         15.6740     3.2350    15.4520 ca         1 WLE      -0.318500
      7 C2          14.8020     9.6430     9.4000 ca         1 WLE      -0.214000
      8 C3          15.8120    10.2570    10.1570 ca         1 WLE      -0.049000
      9 C4          16.4120     9.5700    11.2260 ca         1 WLE      -0.162000
     10 C5          16.0080     8.2560    11.5470 ca         1 WLE       0.020000
     11 C6          14.9910     7.6530    10.7830 ca         1 WLE      -0.201000
     12 C7          12.7170     8.2840     7.8980 c3         1 WLE       0.149900
     13 C8          17.6020     7.7470    13.4980 c          1 WLE       0.669100
     14 C9          17.0780     5.5810    14.7460 ca         1 WLE       0.048000
     15 N1          16.5620     7.4990    12.6130 ns         1 WLE      -0.159000
     16 N2          17.8250     6.7420    14.4230 ns         1 WLE      -0.179000
     17 N3          14.6240     0.9820    14.4650 n8         1 WLE      -1.021100
     18 O1          13.3990     7.6760     9.0100 os         1 WLE      -0.352100
     19 O2          18.3130     8.7450    13.4700 o          1 WLE      -0.598100
     20 O3          13.4070     2.0480    16.2740 o          1 WLE      -0.552500
     21 O4          15.6290     0.8400    16.6690 o          1 WLE      -0.552500
     22 H10         13.8770     4.4060    15.0880 ha         1 WLE       0.139000
     23 H11         15.0990     6.4640    14.5130 ha         1 WLE       0.128500
     24 H12         18.8620     4.4230    15.1470 ha         1 WLE       0.128500
     25 H13         17.6420     2.3570    15.7510 ha         1 WLE       0.139000
     26 H1          14.3550    10.1970     8.5800 ha         1 WLE       0.120000
     27 H2          16.1310    11.2700     9.9170 ha         1 WLE       0.116000
     28 H3          17.1850    10.0790    11.7930 ha         1 WLE       0.145000
     29 H4          14.6640     6.6430    11.0170 ha         1 WLE       0.125000
     30 H5          11.9730     7.5920     7.4850 h1         1 WLE       0.043367
     31 H6          12.1940     9.1960     8.2120 h1         1 WLE       0.043367
     32 H7          13.4240     8.5400     7.0990 h1         1 WLE       0.043367
     33 H8          16.1140     6.6030    12.7520 hn         1 WLE       0.162000
     34 H9          18.6500     6.8780    14.9910 hn         1 WLE       0.175000
     35 H15         14.9950     0.0680    14.7130 hn         1 WLE       0.478500
     36 H14         13.6210     0.8130    14.4700 hn         1 WLE       0.478500
     37 S1          14.7850     1.7450    15.8940 sy         1 WLE       1.161600
@<TRIPOS>BOND
     1     1     7 ar  
     2     1    11 ar  
     3     1    18 1   
     4     2     3 ar  
     5     2     6 ar  
     6     2    22 1   
     7     3    14 ar  
     8     3    23 1   
     9     4     5 ar  
    10     4    14 ar  
    11     4    24 1   
    12     5     6 ar  
    13     5    25 1   
    14     6    37 1   
    15     7     8 ar  
    16     7    26 1   
    17     8     9 ar  
    18     8    27 1   
    19     9    10 ar  
    20     9    28 1   
    21    10    11 ar  
    22    10    15 1   
    23    11    29 1   
    24    12    18 1   
    25    12    30 1   
    26    12    31 1   
    27    12    32 1   
    28    13    15 1   
    29    13    16 1   
    30    13    19 2   
    31    14    16 1   
    32    15    33 1   
    33    16    34 1   
    34    17    35 1   
    35    17    36 1   
    36    17    37 1   
    37    20    37 2   
    38    21    37 2   
@<TRIPOS>SUBSTRUCTURE
     1 WLE         1 TEMP              0 ****  ****    0 ROOT
