@<TRIPOS>MOLECULE
WLG
   30    31     1     0     0
SMALL
No Charge or Current Charge


@<TRIPOS>ATOM
      1 C10        -29.4810    22.9310     2.9050 c6         1 WLG      -0.093400
      2 C13        -27.5610    22.0640    -0.4600 cx         1 WLG      -0.118900
      3 C15        -30.0630    21.9480     0.3720 c6         1 WLG       0.140000
      4 C02        -34.4190    22.0420    -2.7130 c3         1 WLG       0.380300
      5 C05        -32.6740    22.4140    -1.0220 c3         1 WLG       0.073600
      6 C09        -30.7060    23.5630     2.1990 c6         1 WLG       0.105000
      7 C11        -28.2530    22.8270     1.9640 c6         1 WLG      -0.040400
      8 C12        -28.6390    22.5240     0.4990 cx         1 WLG      -0.136000
      9 C14        -28.1420    23.4500    -0.5940 cx         1 WLG      -0.118900
     10 F01        -33.5730    22.2940    -3.7390 f          1 WLG      -0.145000
     11 F03        -34.4130    20.7020    -2.5230 f          1 WLG      -0.145000
     12 N08        -31.0970    22.8590     0.9420 n          1 WLG      -0.415800
     13 O04        -34.0030    22.7360    -1.5180 os         1 WLG      -0.453000
     14 O07        -33.0220    24.0780     0.7210 o          1 WLG      -0.573100
     15 H1         -29.7550    21.9260     3.2560 hc         1 WLG       0.051200
     16 H2         -29.2200    23.5080     3.8020 hc         1 WLG       0.051200
     17 H3         -27.8260    21.3290    -1.2170 hc         1 WLG       0.075200
     18 H4         -26.5440    21.9780    -0.0840 hc         1 WLG       0.075200
     19 H5         -30.2510    21.7410    -0.6890 h1         1 WLG       0.043700
     20 H6         -30.1030    20.9840     0.9000 h1         1 WLG       0.043700
     21 H7         -35.4290    22.3500    -3.0060 h3         1 WLG       0.109700
     22 H8         -32.5980    21.3450    -0.7830 h1         1 WLG       0.060700
     23 H9         -31.9150    22.6470    -1.7800 h1         1 WLG       0.060700
     24 H10        -30.4810    24.6120     1.9600 h1         1 WLG       0.059200
     25 H11        -31.5580    23.5610     2.8950 h1         1 WLG       0.059200
     26 H12        -27.5750    22.0460     2.3360 hc         1 WLG       0.047700
     27 H13        -27.6870    23.7680     2.0050 hc         1 WLG       0.047700
     28 H14        -27.5100    24.2900    -0.3140 hc         1 WLG       0.075200
     29 H15        -28.7980    23.6440    -1.4390 hc         1 WLG       0.075200
     30 C06        -32.2930    23.2010     0.2650 c          1 WLG       0.604100
@<TRIPOS>BOND
     1     1     6 1   
     2     1     7 1   
     3     1    15 1   
     4     1    16 1   
     5     2     8 1   
     6     2     9 1   
     7     2    17 1   
     8     2    18 1   
     9     3     8 1   
    10     3    12 1   
    11     3    19 1   
    12     3    20 1   
    13     4    10 1   
    14     4    11 1   
    15     4    13 1   
    16     4    21 1   
    17     5    13 1   
    18     5    22 1   
    19     5    23 1   
    20     5    30 1   
    21     6    12 1   
    22     6    24 1   
    23     6    25 1   
    24     7     8 1   
    25     7    26 1   
    26     7    27 1   
    27     8     9 1   
    28     9    28 1   
    29     9    29 1   
    30    12    30 1   
    31    14    30 2   
@<TRIPOS>SUBSTRUCTURE
     1 WLG         1 TEMP              0 ****  ****    0 ROOT
