@<TRIPOS>MOLECULE
WLG
   30    31     1     0     0
SMALL
bcc


@<TRIPOS>ATOM
      1 C10        -29.6670    22.9420     2.7520 c6         1 WLG      -0.093400
      2 C13        -27.5270    22.1680    -0.4210 cx         1 WLG      -0.118900
      3 C15        -30.0290    22.0560     0.1700 c6         1 WLG       0.140000
      4 C02        -34.4400    21.9560    -2.3950 c3         1 WLG       0.599700
      5 C05        -32.5900    22.2380    -0.9560 c3         1 WLG       0.050400
      6 C09        -30.5930    23.7760     1.8800 c6         1 WLG       0.105000
      7 C11        -28.3790    22.5600     2.0090 c6         1 WLG      -0.040400
      8 C12        -28.6370    22.5150     0.5160 cx         1 WLG      -0.136000
      9 C14        -28.0420    23.5760    -0.3620 cx         1 WLG      -0.118900
     10 F01        -33.8450    22.5610    -3.4600 f          1 WLG      -0.266300
     11 F03        -34.1810    20.6310    -2.5510 f          1 WLG      -0.266300
     12 N08        -31.0010    23.0090     0.7060 n          1 WLG      -0.482800
     13 O04        -33.9670    22.4250    -1.2310 os         1 WLG      -0.406600
     14 O07        -33.0500    23.9650     0.6330 o          1 WLG      -0.573100
     15 H1         -30.2050    22.0430     3.0660 hc         1 WLG       0.051200
     16 H2         -29.4390    23.4990     3.6610 hc         1 WLG       0.051200
     17 H3         -27.7610    21.5760    -1.2990 hc         1 WLG       0.075200
     18 H4         -26.5550    21.9560     0.0080 hc         1 WLG       0.075200
     19 H5         -30.1250    21.9880    -0.9150 h1         1 WLG       0.043700
     20 H6         -30.2090    21.0520     0.5720 h1         1 WLG       0.043700
     21 H7         -35.5140    22.1240    -2.4380 h3         1 WLG       0.109700
     22 H8         -32.3860    21.1960    -0.6940 h1         1 WLG       0.060700
     23 H9         -31.9680    22.4910    -1.8210 h1         1 WLG       0.060700
     24 H10        -30.0970    24.7030     1.5740 h1         1 WLG       0.059200
     25 H11        -31.4830    24.0580     2.4390 h1         1 WLG       0.059200
     26 H12        -28.0240    21.5880     2.3620 hc         1 WLG       0.047700
     27 H13        -27.5870    23.2810     2.2200 hc         1 WLG       0.047700
     28 H14        -27.4220    24.3300     0.1080 hc         1 WLG       0.075200
     29 H15        -28.6270    23.9410    -1.1980 hc         1 WLG       0.075200
     30 C06        -32.2390    23.1580     0.2060 c          1 WLG       0.671100
@<TRIPOS>BOND
     1     1     6 1   
     2     1     7 1   
     3     1    15 1   
     4     1    16 1   
     5     2     8 1   
     6     2     9 1   
     7     2    17 1   
     8     2    18 1   
     9     3     8 1   
    10     3    12 1   
    11     3    19 1   
    12     3    20 1   
    13     4    10 1   
    14     4    11 1   
    15     4    13 1   
    16     4    21 1   
    17     5    13 1   
    18     5    22 1   
    19     5    23 1   
    20     5    30 1   
    21     6    12 1   
    22     6    24 1   
    23     6    25 1   
    24     7     8 1   
    25     7    26 1   
    26     7    27 1   
    27     8     9 1   
    28     9    28 1   
    29     9    29 1   
    30    12    30 1   
    31    14    30 2   
@<TRIPOS>SUBSTRUCTURE
     1 WLG         1 TEMP              0 ****  ****    0 ROOT
