@<TRIPOS>MOLECULE
WLH
   38    40     1     0     0
SMALL
bcc


@<TRIPOS>ATOM
      1 CAC         -2.1760    -1.1590    -0.7590 c6         1 WLH       0.227800
      2 CAB         -3.3680    -1.4150     0.1420 c6         1 WLH       0.145800
      3 NAR         -4.3130    -0.3200     0.0620 n3         1 WLH      -0.715600
      4 CAA         -5.5030    -0.5760     0.8400 c3         1 WLH       0.152100
      5 CAF         -3.6750     0.9190     0.4480 c6         1 WLH       0.145800
      6 CAE         -2.4830     1.2270    -0.4430 c6         1 WLH       0.227800
      7 NAD         -1.5530     0.1130    -0.4340 nh         1 WLH      -0.768600
      8 CAG         -0.2160     0.2140    -0.2990 cc         1 WLH       0.746800
      9 NAH          0.5200    -0.8670    -0.2370 nd         1 WLH      -0.738300
     10 CAI          1.8550    -0.7280    -0.0710 cd         1 WLH       0.235400
     11 CAQ          2.6110    -2.0230     0.0070 c6         1 WLH      -0.034200
     12 CAP          4.1140    -1.8530    -0.1680 c6         1 WLH      -0.073400
     13 CAO          4.6180    -0.7030     0.6920 c6         1 WLH      -0.076400
     14 CAN          3.9810     0.6100     0.2520 c6         1 WLH       0.000800
     15 CAJ          2.4980     0.4750     0.0480 cc         1 WLH      -0.305400
     16 CAK          1.7120     1.6670    -0.0540 c          1 WLH       0.719700
     17 OAL          2.1300     2.8190    -0.0090 o          1 WLH      -0.638500
     18 NAM          0.3500     1.4470    -0.2290 ns         1 WLH      -0.505400
     19 HAC1        -1.4460    -1.9550    -0.6540 h1         1 WLH       0.062450
     20 HAC2        -2.5070    -1.1340    -1.8030 h1         1 WLH       0.062450
     21 HAB1        -3.8560    -2.3360    -0.1860 h1         1 WLH       0.044700
     22 HAB2        -3.0170    -1.5820     1.1750 h1         1 WLH       0.044700
     23 HAA1        -5.3030    -0.6960     1.9160 h1         1 WLH       0.034033
     24 HAA2        -6.2090     0.2470     0.7220 h1         1 WLH       0.034033
     25 HAA3        -5.9890    -1.4870     0.4880 h1         1 WLH       0.034033
     26 HAF1        -4.3920     1.7390     0.3550 h1         1 WLH       0.044700
     27 HAF2        -3.3360     0.8990     1.4980 h1         1 WLH       0.044700
     28 HAE1        -2.8180     1.4240    -1.4670 h1         1 WLH       0.062450
     29 HAE2        -2.0260     2.1380    -0.0640 h1         1 WLH       0.062450
     30 HAM         -0.2080     2.2810    -0.3440 hn         1 WLH       0.323500
     31 HAQ1         2.3980    -2.4720     0.9830 hc         1 WLH       0.061200
     32 HAQ2         2.2010    -2.7120    -0.7340 hc         1 WLH       0.061200
     33 HAP1         4.6220    -2.7840     0.0910 hc         1 WLH       0.043700
     34 HAP2         4.3420    -1.6510    -1.2180 hc         1 WLH       0.043700
     35 HAO1         4.3720    -0.8990     1.7400 hc         1 WLH       0.041700
     36 HAO2         5.7050    -0.6230     0.6330 hc         1 WLH       0.041700
     37 HAN1         4.1820     1.3890     0.9910 hc         1 WLH       0.052200
     38 HAN2         4.4550     0.9520    -0.6750 hc         1 WLH       0.052200
@<TRIPOS>BOND
     1     1     2 1   
     2     1     7 1   
     3     1    19 1   
     4     1    20 1   
     5     2     3 1   
     6     2    21 1   
     7     2    22 1   
     8     3     4 1   
     9     3     5 1   
    10     4    23 1   
    11     4    24 1   
    12     4    25 1   
    13     5     6 1   
    14     5    26 1   
    15     5    27 1   
    16     6     7 1   
    17     6    28 1   
    18     6    29 1   
    19     7     8 1   
    20     8     9 2   
    21     8    18 1   
    22     9    10 1   
    23    10    11 1   
    24    10    15 2   
    25    11    12 1   
    26    11    31 1   
    27    11    32 1   
    28    12    13 1   
    29    12    33 1   
    30    12    34 1   
    31    13    14 1   
    32    13    35 1   
    33    13    36 1   
    34    14    15 1   
    35    14    37 1   
    36    14    38 1   
    37    15    16 1   
    38    16    17 2   
    39    16    18 1   
    40    18    30 1   
@<TRIPOS>SUBSTRUCTURE
     1 WLH         1 TEMP              0 ****  ****    0 ROOT
