@<TRIPOS>MOLECULE
WLH
   38    40     1     0     0
SMALL
No Charge or Current Charge


@<TRIPOS>ATOM
      1 CAC         -2.3450    -0.7790    -1.5070 c6         1 WLH       0.227800
      2 CAB         -3.1810    -1.3790    -0.3320 c6         1 WLH       0.145800
      3 NAR         -4.1080    -0.3760     0.2820 n3         1 WLH      -0.715600
      4 CAA         -4.9260    -0.9460     1.3740 c3         1 WLH       0.152100
      5 CAF         -3.3470     0.8420     0.7020 c6         1 WLH       0.145800
      6 CAE         -2.5050     1.4610    -0.4620 c6         1 WLH       0.227800
      7 NAD         -1.5940     0.4480    -1.0860 nh         1 WLH      -0.768600
      8 CAG         -0.2730     0.3810    -0.7280 cc         1 WLH       0.746800
      9 NAH          0.2720    -0.7730    -0.3870 nd         1 WLH      -0.738300
     10 CAI          1.6240    -0.7530    -0.0400 cd         1 WLH       0.235400
     11 CAQ          2.2890    -2.0520     0.3830 c6         1 WLH      -0.034200
     12 CAP          3.8310    -1.9790     0.3430 c6         1 WLH      -0.073400
     13 CAO          4.3180    -0.6880     1.0260 c6         1 WLH      -0.076400
     14 CAN          3.7980     0.5580     0.2750 c6         1 WLH       0.000800
     15 CAJ          2.3180     0.4520    -0.0750 cc         1 WLH      -0.305400
     16 CAK          1.6780     1.7010    -0.4940 c          1 WLH       0.577200
     17 OAL          2.2280     2.7880    -0.5770 o          1 WLH      -0.563000
     18 NAM          0.3860     1.5480    -0.7960 ns         1 WLH      -0.438400
     19 HAC1        -1.6690    -1.5510    -1.9020 h1         1 WLH       0.062450
     20 HAC2        -3.0320    -0.5230    -2.3260 h1         1 WLH       0.062450
     21 HAB1        -3.7500    -2.2390    -0.7130 h1         1 WLH       0.044700
     22 HAB2        -2.4860    -1.7660     0.4280 h1         1 WLH       0.044700
     23 HAA1        -4.2910    -1.2850     2.2040 h1         1 WLH       0.034033
     24 HAA2        -5.6290    -0.1970     1.7630 h1         1 WLH       0.034033
     25 HAA3        -5.5100    -1.8030     1.0140 h1         1 WLH       0.034033
     26 HAF1        -4.0370     1.6100     1.0810 h1         1 WLH       0.044700
     27 HAF2        -2.6630     0.5920     1.5270 h1         1 WLH       0.044700
     28 HAE1        -3.1960     1.8540    -1.2220 h1         1 WLH       0.062450
     29 HAE2        -1.9490     2.3230    -0.0660 h1         1 WLH       0.062450
     30 HAM         -0.1080     2.3590    -1.1220 hn         1 WLH       0.323500
     31 HAQ1         1.9670    -2.3030     1.4020 hc         1 WLH       0.061200
     32 HAQ2         1.9490    -2.8800    -0.2540 hc         1 WLH       0.061200
     33 HAP1         4.2620    -2.8590     0.8400 hc         1 WLH       0.043700
     34 HAP2         4.1800    -2.0020    -0.6990 hc         1 WLH       0.043700
     35 HAO1         3.9700    -0.6670     2.0680 hc         1 WLH       0.041700
     36 HAO2         5.4160    -0.6690     1.0630 hc         1 WLH       0.041700
     37 HAN1         3.9990     1.4470     0.8900 hc         1 WLH       0.052200
     38 HAN2         4.3850     0.6910    -0.6440 hc         1 WLH       0.052200
@<TRIPOS>BOND
     1     1     2 1   
     2     1     7 1   
     3     1    19 1   
     4     1    20 1   
     5     2     3 1   
     6     2    21 1   
     7     2    22 1   
     8     3     4 1   
     9     3     5 1   
    10     4    23 1   
    11     4    24 1   
    12     4    25 1   
    13     5     6 1   
    14     5    26 1   
    15     5    27 1   
    16     6     7 1   
    17     6    28 1   
    18     6    29 1   
    19     7     8 1   
    20     8     9 2   
    21     8    18 1   
    22     9    10 1   
    23    10    11 1   
    24    10    15 2   
    25    11    12 1   
    26    11    31 1   
    27    11    32 1   
    28    12    13 1   
    29    12    33 1   
    30    12    34 1   
    31    13    14 1   
    32    13    35 1   
    33    13    36 1   
    34    14    15 1   
    35    14    37 1   
    36    14    38 1   
    37    15    16 1   
    38    16    17 2   
    39    16    18 1   
    40    18    30 1   
@<TRIPOS>SUBSTRUCTURE
     1 WLH         1 TEMP              0 ****  ****    0 ROOT
