@<TRIPOS>MOLECULE
WLJ
   32    33     1     0     0
SMALL
No Charge or Current Charge


@<TRIPOS>ATOM
      1 C13        -27.2100    -8.4590   -19.3870 c3         1 WLJ      -0.093900
      2 C15        -26.0820    -8.1190   -21.7040 c3         1 WLJ      -0.070400
      3 C17        -27.6560    -6.1400   -21.1460 c3         1 WLJ       0.106500
      4 C02        -31.6710    -8.1620   -20.6380 ca         1 WLJ       0.226000
      5 C03        -32.7890    -8.8470   -20.1400 ca         1 WLJ      -0.174000
      6 C04        -33.5530    -8.2890   -19.1010 ca         1 WLJ      -0.049000
      7 C05        -33.1930    -7.0380   -18.5720 ca         1 WLJ      -0.174000
      8 C06        -32.0750    -6.3560   -19.0750 ca         1 WLJ       0.226000
      9 C08        -31.2960    -6.9190   -20.0980 ca         1 WLJ      -0.234600
     10 C12        -28.6200    -7.8290   -19.4790 c3         1 WLJ       0.106500
     11 C14        -26.7080    -9.1100   -20.6980 c3         1 WLJ      -0.070400
     12 C16        -27.0380    -7.0320   -22.2400 c3         1 WLJ      -0.093900
     13 F07        -31.7380    -5.1600   -18.5420 f          1 WLJ      -0.165000
     14 N11        -28.8390    -6.7620   -20.4960 n          1 WLJ      -0.392800
     15 H1         -27.2490    -9.2360   -18.6140 hc         1 WLJ       0.048700
     16 H2         -26.4850    -7.7180   -19.0310 hc         1 WLJ       0.048700
     17 H3         -25.6890    -8.6880   -22.5560 hc         1 WLJ       0.040450
     18 H4         -25.2170    -7.6340   -21.2340 hc         1 WLJ       0.040450
     19 H5         -26.9010    -5.8920   -20.3890 h1         1 WLJ       0.051450
     20 H6         -27.9420    -5.1900   -21.6140 h1         1 WLJ       0.051450
     21 H7         -33.0670    -9.8090   -20.5650 ha         1 WLJ       0.140000
     22 H8         -34.4220    -8.8190   -18.7130 ha         1 WLJ       0.124000
     23 H9         -33.7800    -6.5960   -17.7710 ha         1 WLJ       0.140000
     24 H10        -28.8770    -7.4160   -18.4950 h1         1 WLJ       0.051450
     25 H11        -29.3190    -8.6510   -19.6730 h1         1 WLJ       0.051450
     26 H12        -27.5280    -9.6590   -21.1780 hc         1 WLJ       0.040450
     27 H13        -25.9450    -9.8560   -20.4420 hc         1 WLJ       0.040450
     28 H14        -26.4700    -6.3920   -22.9260 hc         1 WLJ       0.048700
     29 H15        -27.8370    -7.4930   -22.8350 hc         1 WLJ       0.048700
     30 C09        -30.1220    -6.1760   -20.6400 c          1 WLJ       0.630700
     31 F01        -30.9690    -8.7010   -21.6600 f          1 WLJ      -0.165000
     32 O10        -30.2920    -5.1220   -21.2390 o          1 WLJ      -0.582100
@<TRIPOS>BOND
     1     1    10 1   
     2     1    11 1   
     3     1    15 1   
     4     1    16 1   
     5     2    11 1   
     6     2    12 1   
     7     2    17 1   
     8     2    18 1   
     9     3    12 1   
    10     3    14 1   
    11     3    19 1   
    12     3    20 1   
    13     4     5 ar  
    14     4     9 ar  
    15     4    31 1   
    16     5     6 ar  
    17     5    21 1   
    18     6     7 ar  
    19     6    22 1   
    20     7     8 ar  
    21     7    23 1   
    22     8     9 ar  
    23     8    13 1   
    24     9    30 1   
    25    10    14 1   
    26    10    24 1   
    27    10    25 1   
    28    11    26 1   
    29    11    27 1   
    30    12    28 1   
    31    12    29 1   
    32    14    30 1   
    33    30    32 2   
@<TRIPOS>SUBSTRUCTURE
     1 WLJ         1 TEMP              0 ****  ****    0 ROOT
