@<TRIPOS>MOLECULE
WLJ
   32    33     1     0     0
SMALL
bcc


@<TRIPOS>ATOM
      1 C13        -27.2910    -8.4030   -19.3500 c3         1 WLJ      -0.093900
      2 C15        -26.3290    -8.1070   -21.6960 c3         1 WLJ      -0.070400
      3 C17        -27.6270    -6.0130   -20.9800 c3         1 WLJ       0.106500
      4 C02        -31.6810    -8.3650   -20.7650 ca         1 WLJ       0.190900
      5 C03        -32.8130    -8.9550   -20.2400 ca         1 WLJ      -0.192000
      6 C04        -33.4370    -8.3380   -19.1650 ca         1 WLJ      -0.067000
      7 C05        -32.9370    -7.1610   -18.6250 ca         1 WLJ      -0.192000
      8 C06        -31.7980    -6.6190   -19.1860 ca         1 WLJ       0.190900
      9 C08        -31.1390    -7.1980   -20.2560 ca         1 WLJ      -0.234600
     10 C12        -28.5190    -7.5080   -19.1960 c3         1 WLJ       0.106500
     11 C14        -27.1100    -9.0120   -20.7420 c3         1 WLJ      -0.070400
     12 C16        -27.0410    -6.8290   -22.1280 c3         1 WLJ      -0.093900
     13 F07        -31.2870    -5.4900   -18.6800 f          1 WLJ      -0.129900
     14 N11        -28.7680    -6.6750   -20.3620 n          1 WLJ      -0.459800
     15 H1         -27.3890    -9.1930   -18.6020 hc         1 WLJ       0.048700
     16 H2         -26.3840    -7.8560   -19.0810 hc         1 WLJ       0.048700
     17 H3         -26.0620    -8.6720   -22.5920 hc         1 WLJ       0.040450
     18 H4         -25.3840    -7.8430   -21.2100 hc         1 WLJ       0.040450
     19 H5         -26.8790    -5.8410   -20.2040 h1         1 WLJ       0.051450
     20 H6         -27.9400    -5.0330   -21.3380 h1         1 WLJ       0.051450
     21 H7         -33.1960    -9.8750   -20.6610 ha         1 WLJ       0.158000
     22 H8         -34.3260    -8.7820   -18.7400 ha         1 WLJ       0.142000
     23 H9         -33.4200    -6.6750   -17.7890 ha         1 WLJ       0.158000
     24 H10        -28.4100    -6.8800   -18.3070 h1         1 WLJ       0.051450
     25 H11        -29.3900    -8.1400   -19.0320 h1         1 WLJ       0.051450
     26 H12        -28.0800    -9.2810   -21.1740 hc         1 WLJ       0.040450
     27 H13        -26.5570    -9.9480   -20.6390 hc         1 WLJ       0.040450
     28 H14        -26.3340    -6.1950   -22.6700 hc         1 WLJ       0.048700
     29 H15        -27.8420    -7.0630   -22.8340 hc         1 WLJ       0.048700
     30 C09        -29.9740    -6.5210   -20.9240 c          1 WLJ       0.697700
     31 F01        -31.0520    -8.9450   -21.7960 f          1 WLJ      -0.129900
     32 O10        -30.1830    -5.8560   -21.9280 o          1 WLJ      -0.582100
@<TRIPOS>BOND
     1     1    10 1   
     2     1    11 1   
     3     1    15 1   
     4     1    16 1   
     5     2    11 1   
     6     2    12 1   
     7     2    17 1   
     8     2    18 1   
     9     3    12 1   
    10     3    14 1   
    11     3    19 1   
    12     3    20 1   
    13     4     5 ar  
    14     4     9 ar  
    15     4    31 1   
    16     5     6 ar  
    17     5    21 1   
    18     6     7 ar  
    19     6    22 1   
    20     7     8 ar  
    21     7    23 1   
    22     8     9 ar  
    23     8    13 1   
    24     9    30 1   
    25    10    14 1   
    26    10    24 1   
    27    10    25 1   
    28    11    26 1   
    29    11    27 1   
    30    12    28 1   
    31    12    29 1   
    32    14    30 1   
    33    30    32 2   
@<TRIPOS>SUBSTRUCTURE
     1 WLJ         1 TEMP              0 ****  ****    0 ROOT
