@<TRIPOS>MOLECULE
WLK
   56    61     1     0     0
SMALL
abcg2


@<TRIPOS>ATOM
      1 O          -14.1360    -7.6520    30.8080 o          1 WLK      -0.560100
      2 C          -13.2550    -7.3530    31.6170 c          1 WLK       0.530600
      3 C1         -12.6880    -5.9650    31.5970 cc         1 WLK       0.368900
      4 S          -12.5600    -4.9580    33.0040 ss         1 WLK      -0.014400
      5 C3         -12.0120    -3.6700    32.0160 cc         1 WLK      -0.258000
      6 C2         -11.9570    -4.0760    30.7150 cd         1 WLK       0.273900
      7 N          -12.3520    -5.3670    30.4860 nd         1 WLK      -0.591000
      8 N1         -12.7910    -8.2110    32.5380 n          1 WLK      -0.425800
      9 C23        -13.3320    -9.5800    32.6110 c5         1 WLK       0.098000
     10 C22        -12.4730   -10.2520    33.6820 c5         1 WLK      -0.113400
     11 C5         -11.1360    -9.4970    33.6000 c5         1 WLK       0.238500
     12 C4         -11.5920    -8.0580    33.3800 c5         1 WLK       0.086000
     13 N2         -10.3180    -9.9280    32.4780 nu         1 WLK      -0.926100
     14 C6          -9.5850   -11.0610    32.4710 ca         1 WLK       0.397900
     15 N6          -8.9440   -11.3660    31.3230 nb         1 WLK      -0.241000
     16 C21         -8.2270   -12.4850    31.3350 ca         1 WLK       0.162900
     17 C20         -8.1110   -13.3090    32.4460 ca         1 WLK      -0.278000
     18 C7          -8.7930   -12.8810    33.5780 ca         1 WLK       0.260500
     19 N3          -9.5330   -11.7830    33.6050 nb         1 WLK      -0.271000
     20 N4          -8.7680   -13.6280    34.7780 na         1 WLK      -0.199000
     21 C15         -9.8980   -13.9010    35.5390 cc         1 WLK      -0.179000
     22 C16         -9.4990   -14.7710    36.5130 cd         1 WLK       0.278300
     23 C17        -10.3170   -15.3800    37.5740 cx         1 WLK      -0.160000
     24 C19         -9.7330   -15.6160    38.9480 cx         1 WLK      -0.115900
     25 C18        -10.0260   -16.7830    38.0530 cx         1 WLK      -0.115900
     26 N5          -8.1450   -15.0200    36.3820 nd         1 WLK      -0.663000
     27 C8          -7.7230   -14.3300    35.3420 cc         1 WLK       0.486000
     28 C9          -6.3220   -14.2400    34.9170 ca         1 WLK      -0.131500
     29 C14         -5.5330   -15.3940    34.8990 ca         1 WLK      -0.081500
     30 C13         -4.1960   -15.3240    34.5310 ca         1 WLK      -0.116000
     31 C12         -3.6300   -14.1020    34.1780 ca         1 WLK      -0.098000
     32 C11         -4.4070   -12.9470    34.2050 ca         1 WLK      -0.116000
     33 C10         -5.7440   -13.0140    34.5740 ca         1 WLK      -0.081500
     34 H1         -11.7710    -2.7060    32.4330 h4         1 WLK       0.165000
     35 H2         -11.6360    -3.4600    29.8880 h4         1 WLK       0.049100
     36 H3         -14.3920    -9.5570    32.8600 h1         1 WLK       0.064200
     37 H4         -13.2240   -10.0630    31.6380 h1         1 WLK       0.064200
     38 H5         -12.9050   -10.1020    34.6720 hc         1 WLK       0.069200
     39 H6         -12.3550   -11.3200    33.5140 hc         1 WLK       0.069200
     40 H7         -10.5570    -9.5950    34.5150 h1         1 WLK       0.094700
     41 H8         -10.8390    -7.4470    32.8900 h1         1 WLK       0.066700
     42 H9         -11.8470    -7.6070    34.3400 h1         1 WLK       0.066700
     43 H10        -10.3810    -9.4360    31.6000 hn         1 WLK       0.518000
     44 H11         -7.7230   -12.7460    30.4100 h4         1 WLK       0.031100
     45 H12         -7.5420   -14.2230    32.4220 ha         1 WLK       0.154000
     46 H13        -10.8560   -13.4810    35.2890 h4         1 WLK       0.167000
     47 H14        -11.3600   -15.0910    37.5410 hc         1 WLK       0.076700
     48 H15         -8.6960   -15.3420    39.0900 hc         1 WLK       0.075700
     49 H16        -10.3760   -15.4450    39.8010 hc         1 WLK       0.075700
     50 H17        -10.8710   -17.4160    38.2900 hc         1 WLK       0.075700
     51 H18         -9.1840   -17.2870    37.5970 hc         1 WLK       0.075700
     52 H19         -5.9780   -16.3430    35.1670 ha         1 WLK       0.123500
     53 H20         -3.5960   -16.2260    34.5130 ha         1 WLK       0.116500
     54 H21         -2.5880   -14.0490    33.8900 ha         1 WLK       0.115000
     55 H22         -3.9700   -11.9920    33.9450 ha         1 WLK       0.116500
     56 H23         -6.3360   -12.1090    34.6090 ha         1 WLK       0.123500
@<TRIPOS>BOND
     1     1     2 2   
     2     2     3 1   
     3     2     8 1   
     4     3     4 1   
     5     3     7 2   
     6     4     5 1   
     7     5     6 2   
     8     5    34 1   
     9     6     7 1   
    10     6    35 1   
    11     8     9 1   
    12     8    12 1   
    13     9    10 1   
    14     9    36 1   
    15     9    37 1   
    16    10    11 1   
    17    10    38 1   
    18    10    39 1   
    19    11    12 1   
    20    11    13 1   
    21    11    40 1   
    22    12    41 1   
    23    12    42 1   
    24    13    14 1   
    25    13    43 1   
    26    14    15 ar  
    27    14    19 ar  
    28    15    16 ar  
    29    16    17 ar  
    30    16    44 1   
    31    17    18 ar  
    32    17    45 1   
    33    18    19 ar  
    34    18    20 1   
    35    20    21 1   
    36    20    27 1   
    37    21    22 2   
    38    21    46 1   
    39    22    23 1   
    40    22    26 1   
    41    23    24 1   
    42    23    25 1   
    43    23    47 1   
    44    24    25 1   
    45    24    48 1   
    46    24    49 1   
    47    25    50 1   
    48    25    51 1   
    49    26    27 2   
    50    27    28 1   
    51    28    29 ar  
    52    28    33 ar  
    53    29    30 ar  
    54    29    52 1   
    55    30    31 ar  
    56    30    53 1   
    57    31    32 ar  
    58    31    54 1   
    59    32    33 ar  
    60    32    55 1   
    61    33    56 1   
@<TRIPOS>SUBSTRUCTURE
     1 WLK         1 TEMP              0 ****  ****    0 ROOT
