@<TRIPOS>MOLECULE
WLK
   56    61     1     0     0
SMALL
No Charge or Current Charge


@<TRIPOS>ATOM
      1 O          -13.5240    -7.3120    30.1990 o          1 WLK      -0.560100
      2 C          -12.8560    -7.0240    31.1920 c          1 WLK       0.530600
      3 C1         -12.4630    -5.5770    31.4840 cc         1 WLK       0.368900
      4 S          -11.6980    -5.0280    32.9700 ss         1 WLK      -0.014400
      5 C3         -11.7630    -3.4010    32.3710 cc         1 WLK      -0.258000
      6 C2         -12.3440    -3.3520    31.1310 cd         1 WLK       0.273900
      7 N          -12.7480    -4.5800    30.6320 nd         1 WLK      -0.591000
      8 N1         -12.4680    -8.0980    32.0550 n          1 WLK      -0.425800
      9 C23        -12.9680    -9.4750    31.8200 c5         1 WLK       0.098000
     10 C22        -12.5060   -10.2360    33.0930 c5         1 WLK      -0.113400
     11 C5         -11.1640    -9.5490    33.4680 c5         1 WLK       0.238500
     12 C4         -11.4610    -8.0490    33.1540 c5         1 WLK       0.086000
     13 N2         -10.1750    -9.9800    32.4230 nu         1 WLK      -0.926100
     14 C6          -9.6750   -11.2750    32.5550 ca         1 WLK       0.397900
     15 N6          -9.3350   -11.8580    31.3950 nb         1 WLK      -0.241000
     16 C21         -8.8450   -13.1070    31.4760 ca         1 WLK       0.162900
     17 C20         -8.6980   -13.7550    32.7110 ca         1 WLK      -0.278000
     18 C7          -9.0680   -13.0640    33.8830 ca         1 WLK       0.260500
     19 N3          -9.5630   -11.8140    33.7850 nb         1 WLK      -0.271000
     20 N4          -8.9110   -13.7210    35.0970 na         1 WLK      -0.199000
     21 C15         -9.9720   -14.1420    35.8610 cc         1 WLK      -0.179000
     22 C16         -9.3920   -14.9680    36.7890 cd         1 WLK       0.278300
     23 C17        -10.1260   -15.6920    37.8630 cx         1 WLK      -0.160000
     24 C19         -9.5140   -15.9110    39.2300 cx         1 WLK      -0.115900
     25 C18         -9.7200   -17.0840    38.3000 cx         1 WLK      -0.115900
     26 N5          -8.0240   -15.0710    36.5910 nd         1 WLK      -0.663000
     27 C8          -7.7420   -14.3000    35.5490 cc         1 WLK       0.486000
     28 C9          -6.3890   -14.1080    34.9960 ca         1 WLK      -0.131500
     29 C14         -5.4190   -15.1240    35.1500 ca         1 WLK      -0.081500
     30 C13         -4.1110   -14.9490    34.6660 ca         1 WLK      -0.116000
     31 C12         -3.7460   -13.7470    34.0410 ca         1 WLK      -0.098000
     32 C11         -4.6880   -12.7150    33.9140 ca         1 WLK      -0.116000
     33 C10         -5.9960   -12.8880    34.3970 ca         1 WLK      -0.081500
     34 H1         -11.3730    -2.5860    32.9660 h4         1 WLK       0.165000
     35 H2         -12.5040    -2.4560    30.5440 h4         1 WLK       0.049100
     36 H3         -14.0600    -9.5060    31.7060 h1         1 WLK       0.064200
     37 H4         -12.5210    -9.9000    30.9110 h1         1 WLK       0.064200
     38 H5         -13.2340   -10.0940    33.9000 hc         1 WLK       0.069200
     39 H6         -12.4230   -11.3160    32.9330 hc         1 WLK       0.069200
     40 H7         -10.8410    -9.7070    34.5080 h1         1 WLK       0.094700
     41 H8         -10.5450    -7.5150    32.8700 h1         1 WLK       0.066700
     42 H9         -11.8890    -7.5680    34.0430 h1         1 WLK       0.066700
     43 H10        -10.2830    -9.6680    31.4580 hn         1 WLK       0.518000
     44 H11         -8.5710   -13.5930    30.5420 h4         1 WLK       0.031100
     45 H12         -8.3050   -14.7670    32.7540 ha         1 WLK       0.154000
     46 H13        -11.0020   -13.8570    35.6910 h4         1 WLK       0.167000
     47 H14        -11.1940   -15.4890    37.8430 hc         1 WLK       0.076700
     48 H15         -8.4940   -15.5710    39.3970 hc         1 WLK       0.075700
     49 H16        -10.1660   -15.8290    40.0970 hc         1 WLK       0.075700
     50 H17        -10.5110   -17.7900    38.5420 hc         1 WLK       0.075700
     51 H18         -8.8380   -17.5290    37.8450 hc         1 WLK       0.075700
     52 H19         -5.6820   -16.0620    35.6360 ha         1 WLK       0.123500
     53 H20         -3.3790   -15.7470    34.7790 ha         1 WLK       0.116500
     54 H21         -2.7330   -13.6110    33.6680 ha         1 WLK       0.115000
     55 H22         -4.4020   -11.7740    33.4480 ha         1 WLK       0.116500
     56 H23         -6.6940   -12.0580    34.3150 ha         1 WLK       0.123500
@<TRIPOS>BOND
     1     1     2 2   
     2     2     3 1   
     3     2     8 1   
     4     3     4 1   
     5     3     7 2   
     6     4     5 1   
     7     5     6 2   
     8     5    34 1   
     9     6     7 1   
    10     6    35 1   
    11     8     9 1   
    12     8    12 1   
    13     9    10 1   
    14     9    36 1   
    15     9    37 1   
    16    10    11 1   
    17    10    38 1   
    18    10    39 1   
    19    11    12 1   
    20    11    13 1   
    21    11    40 1   
    22    12    41 1   
    23    12    42 1   
    24    13    14 1   
    25    13    43 1   
    26    14    15 ar  
    27    14    19 ar  
    28    15    16 ar  
    29    16    17 ar  
    30    16    44 1   
    31    17    18 ar  
    32    17    45 1   
    33    18    19 ar  
    34    18    20 1   
    35    20    21 1   
    36    20    27 1   
    37    21    22 2   
    38    21    46 1   
    39    22    23 1   
    40    22    26 1   
    41    23    24 1   
    42    23    25 1   
    43    23    47 1   
    44    24    25 1   
    45    24    48 1   
    46    24    49 1   
    47    25    50 1   
    48    25    51 1   
    49    26    27 2   
    50    27    28 1   
    51    28    29 ar  
    52    28    33 ar  
    53    29    30 ar  
    54    29    52 1   
    55    30    31 ar  
    56    30    53 1   
    57    31    32 ar  
    58    31    54 1   
    59    32    33 ar  
    60    32    55 1   
    61    33    56 1   
@<TRIPOS>SUBSTRUCTURE
     1 WLK         1 TEMP              0 ****  ****    0 ROOT
