@<TRIPOS>MOLECULE
WLL
   35    37     1     0     0
SMALL
No Charge or Current Charge


@<TRIPOS>ATOM
      1 C19          4.3150     0.7220     1.7720 ca         1 WLL      -0.073000
      2 C20          3.3210     1.4510     1.0990 ca         1 WLL      -0.129000
      3 C18          5.0310    -0.2830     1.0980 ca         1 WLL      -0.190000
      4 C10         -5.0520    -1.3420     0.1230 cc         1 WLL      -0.059000
      5 C16          3.7530     0.1740    -0.9230 ca         1 WLL      -0.135000
      6 C9          -5.0110    -2.2710    -0.8900 cd         1 WLL      -0.258000
      7 C6          -3.8870    -0.5310     0.2040 cc         1 WLL      -0.234600
      8 C15          3.0350     1.1830    -0.2530 ca         1 WLL      -0.083300
      9 C17          4.7490    -0.5600    -0.2580 ca         1 WLL       0.140100
     10 C7          -2.9580    -0.8470    -0.7510 cd         1 WLL       0.058400
     11 C4          -3.6830     0.5280     1.1910 c          1 WLL       0.597600
     12 C2          -1.5540     0.8090     0.0670 cc         1 WLL       0.444900
     13 C11         -0.2980     1.6550     0.1270 c          1 WLL       0.524800
     14 C22          6.4520    -2.3430    -0.3820 c3         1 WLL       0.148900
     15 C14          1.9540     1.9710    -0.9800 c3         1 WLL       0.144300
     16 N1          -1.7400    -0.1670    -0.8440 nd         1 WLL      -0.606100
     17 N3          -2.4850     1.1330     1.0330 ns         1 WLL      -0.393400
     18 N13          0.6430     1.3350    -0.8380 ns         1 WLL      -0.466900
     19 O12         -0.0980     2.5530     0.9440 o          1 WLL      -0.600100
     20 O21          5.4170    -1.5350    -0.9710 os         1 WLL      -0.343100
     21 S8          -3.4890    -2.1760    -1.8050 ss         1 WLL       0.268000
     22 H1           4.5300     0.9350     2.8170 ha         1 WLL       0.115000
     23 H2           2.7700     2.2250     1.6300 ha         1 WLL       0.124000
     24 H3           5.7940    -0.8320     1.6420 ha         1 WLL       0.119000
     25 H4          -5.8910    -1.2270     0.8050 ha         1 WLL       0.153000
     26 H5           3.5390    -0.0460    -1.9660 ha         1 WLL       0.125000
     27 H6          -5.7640    -3.0010    -1.1610 h4         1 WLL       0.156000
     28 H7           6.8470    -3.0520    -1.1210 h1         1 WLL       0.041367
     29 H8           7.2830    -1.7180    -0.0330 h1         1 WLL       0.041367
     30 H9           6.0620    -2.9190     0.4670 h1         1 WLL       0.041367
     31 H10          1.9140     2.9980    -0.5920 h1         1 WLL       0.070200
     32 H11          2.1990     2.0340    -2.0490 h1         1 WLL       0.070200
     33 H12         -2.2720     1.8790     1.6810 hn         1 WLL       0.358500
     34 H13          0.3950     0.5760    -1.4650 hn         1 WLL       0.350500
     35 O5          -4.4750     0.8510     2.0620 o          1 WLL      -0.522000
@<TRIPOS>BOND
     1     1     2 ar  
     2     1     3 ar  
     3     1    22 1   
     4     2     8 ar  
     5     2    23 1   
     6     3     9 ar  
     7     3    24 1   
     8     4     6 2   
     9     4     7 1   
    10     4    25 1   
    11     5     8 ar  
    12     5     9 ar  
    13     5    26 1   
    14     6    21 1   
    15     6    27 1   
    16     7    10 2   
    17     7    11 1   
    18     8    15 1   
    19     9    20 1   
    20    10    16 1   
    21    10    21 1   
    22    11    17 1   
    23    11    35 2   
    24    12    13 1   
    25    12    16 2   
    26    12    17 1   
    27    13    18 1   
    28    13    19 2   
    29    14    20 1   
    30    14    28 1   
    31    14    29 1   
    32    14    30 1   
    33    15    18 1   
    34    15    31 1   
    35    15    32 1   
    36    17    33 1   
    37    18    34 1   
@<TRIPOS>SUBSTRUCTURE
     1 WLL         1 TEMP              0 ****  ****    0 ROOT
