@<TRIPOS>MOLECULE
WLL
   35    37     1     0     0
SMALL
bcc


@<TRIPOS>ATOM
      1 C19          3.9170    -0.0360     1.7670 ca         1 WLL      -0.091000
      2 C20          2.9250     0.6680     1.1110 ca         1 WLL      -0.147000
      3 C18          4.9680    -0.6260     1.0690 ca         1 WLL      -0.208000
      4 C10         -5.2300    -1.0790     0.2750 cc         1 WLL      -0.077000
      5 C16          4.0100     0.2020    -0.9820 ca         1 WLL      -0.153000
      6 C9          -5.0460    -2.1790    -0.4980 cd         1 WLL      -0.131100
      7 C6          -4.0670    -0.2640     0.3160 cc         1 WLL      -0.234600
      8 C15          2.9720     0.7880    -0.2790 ca         1 WLL      -0.083300
      9 C17          5.0170    -0.5030    -0.3150 ca         1 WLL       0.140100
     10 C7          -3.0250    -0.7770    -0.4350 cd         1 WLL       0.203300
     11 C4          -3.8680     0.9800     1.0180 c          1 WLL       0.740100
     12 C2          -1.6430     0.8970     0.0520 cc         1 WLL       0.444900
     13 C11         -0.3310     1.6380    -0.0250 c          1 WLL       0.591800
     14 C22          7.0560    -1.7060    -0.4710 c3         1 WLL       0.125700
     15 C14          1.9110     1.5660    -1.0160 c3         1 WLL       0.144300
     16 N1          -1.8060    -0.2150    -0.5810 nd         1 WLL      -0.606100
     17 N3          -2.5900     1.4850     0.8120 ns         1 WLL      -0.460400
     18 N13          0.5810     1.0450    -0.7880 ns         1 WLL      -0.533900
     19 O12         -0.1970     2.6880     0.5850 o          1 WLL      -0.600100
     20 O21          5.9840    -1.0260    -1.0930 os         1 WLL      -0.319900
     21 S8          -3.4690    -2.2570    -1.1920 ss         1 WLL      -0.021800
     22 H1           3.8870    -0.1320     2.8450 ha         1 WLL       0.133000
     23 H2           2.1250     1.1310     1.6750 ha         1 WLL       0.142000
     24 H3           5.7270    -1.1670     1.6180 ha         1 WLL       0.137000
     25 H4          -6.1510    -0.8560     0.7930 ha         1 WLL       0.171000
     26 H5           4.0540     0.2870    -2.0620 ha         1 WLL       0.143000
     27 H6          -5.7580    -2.9620    -0.7080 h4         1 WLL       0.174000
     28 H7           7.7320    -2.0100    -1.2670 h1         1 WLL       0.041367
     29 H8           7.5990    -1.0620     0.2250 h1         1 WLL       0.041367
     30 H9           6.7210    -2.5990     0.0640 h1         1 WLL       0.041367
     31 H10          1.9260     2.6110    -0.7090 h1         1 WLL       0.070200
     32 H11          2.1080     1.5460    -2.0890 h1         1 WLL       0.070200
     33 H12         -2.3500     2.3640     1.2590 hn         1 WLL       0.358500
     34 H13          0.3360     0.1620    -1.2120 hn         1 WLL       0.350500
     35 O5          -4.6780     1.5600     1.7150 o          1 WLL      -0.597500
@<TRIPOS>BOND
     1     1     2 ar  
     2     1     3 ar  
     3     1    22 1   
     4     2     8 ar  
     5     2    23 1   
     6     3     9 ar  
     7     3    24 1   
     8     4     6 2   
     9     4     7 1   
    10     4    25 1   
    11     5     8 ar  
    12     5     9 ar  
    13     5    26 1   
    14     6    21 1   
    15     6    27 1   
    16     7    10 2   
    17     7    11 1   
    18     8    15 1   
    19     9    20 1   
    20    10    16 1   
    21    10    21 1   
    22    11    17 1   
    23    11    35 2   
    24    12    13 1   
    25    12    16 2   
    26    12    17 1   
    27    13    18 1   
    28    13    19 2   
    29    14    20 1   
    30    14    28 1   
    31    14    29 1   
    32    14    30 1   
    33    15    18 1   
    34    15    31 1   
    35    15    32 1   
    36    17    33 1   
    37    18    34 1   
@<TRIPOS>SUBSTRUCTURE
     1 WLL         1 TEMP              0 ****  ****    0 ROOT
