@<TRIPOS>MOLECULE
WLM
   55    57     1     0     0
SMALL
No Charge or Current Charge


@<TRIPOS>ATOM
      1 C1           6.8840     8.7680    44.7440 ca         1 WLM      -0.180600
      2 C2           5.7960     8.7290    43.8250 ca         1 WLM       0.174100
      3 C3           6.6140     8.5530    46.1190 ca         1 WLM      -0.024000
      4 C4           8.3260     9.0360    44.3530 c          1 WLM       0.613700
      5 C5           4.4860     8.4800    44.3020 ca         1 WLM      -0.184000
      6 O6           6.0220     8.9200    42.4730 os         1 WLM      -0.378100
      7 C7           5.3110     8.3100    46.5750 ca         1 WLM       0.072000
      8 N8           8.5900     9.3720    43.0490 ns         1 WLM      -0.501900
      9 O9           9.2360     8.9700    45.1680 o          1 WLM      -0.626100
     10 C10          4.2460     8.2730    45.6690 ca         1 WLM      -0.040000
     11 C11          4.9750     8.8410    41.4860 c3         1 WLM       0.147900
     12 Cl           5.0120     8.0600    48.2900 cl         1 WLM      -0.204000
     13 C13          9.9100     9.7170    42.5230 c3         1 WLM       0.115000
     14 C14          9.9000     9.8590    40.9880 c3         1 WLM      -0.062100
     15 C15          8.8800    10.8760    40.4840 ca         1 WLM      -0.014300
     16 C16          7.7870    10.4600    39.7010 ca         1 WLM      -0.124500
     17 C17          9.0280    12.2420    40.7880 ca         1 WLM      -0.124500
     18 C18          6.8470    11.3940    39.2340 ca         1 WLM      -0.006000
     19 C19          8.0960    13.1830    40.3190 ca         1 WLM      -0.006000
     20 C20          6.9970    12.7610    39.5430 ca         1 WLM      -0.328500
     21 S21          5.7840    13.9520    38.9520 sy         1 WLM       1.184600
     22 N22          4.4910    13.8120    39.9810 nu         1 WLM      -0.828000
     23 O23          5.2210    13.4940    37.6820 o          1 WLM      -0.521000
     24 O24          6.2640    15.3210    39.1530 o          1 WLM      -0.521000
     25 C25          4.6480    13.4380    41.2640 cc         1 WLM       0.623300
     26 S26          5.6380    14.2740    42.4100 ss         1 WLM      -0.242800
     27 N27          3.9610    12.4160    41.7300 nd         1 WLM      -0.388000
     28 C28          5.1260    13.0570    43.5400 cc         1 WLM       0.425700
     29 N29          4.2550    12.1760    43.0610 nd         1 WLM      -0.314000
     30 C30          5.6870    13.0410    44.9480 c3         1 WLM      -0.098000
     31 C31          7.1720    12.6110    44.9540 c3         1 WLM      -0.085600
     32 C32          4.8540    12.1890    45.9380 c3         1 WLM      -0.085600
     33 H3           7.4190     8.5800    46.8500 ha         1 WLM       0.158000
     34 H5           3.6360     8.4460    43.6290 ha         1 WLM       0.131000
     35 H8           7.7880     9.4060    42.4290 hn         1 WLM       0.339500
     36 H10          3.2360     8.0860    46.0250 ha         1 WLM       0.134000
     37 H111         4.1980     9.5900    41.6760 h1         1 WLM       0.052367
     38 H112         5.3810     9.0230    40.4840 h1         1 WLM       0.052367
     39 H113         4.5130     7.8460    41.4870 h1         1 WLM       0.052367
     40 H131        10.2320    10.6620    42.9790 h1         1 WLM       0.056700
     41 H132        10.6270     8.9370    42.8100 h1         1 WLM       0.056700
     42 H141        10.9040    10.1490    40.6570 hc         1 WLM       0.064200
     43 H142         9.7090     8.8730    40.5470 hc         1 WLM       0.064200
     44 H16          7.6620     9.4090    39.4530 ha         1 WLM       0.122500
     45 H17          9.8710    12.5790    41.3860 ha         1 WLM       0.122500
     46 H18          6.0070    11.0490    38.6320 ha         1 WLM       0.134500
     47 H19          8.2320    14.2350    40.5670 ha         1 WLM       0.134500
     48 H22          3.8640    13.1950    39.4930 hn         1 WLM       0.512000
     49 H30          5.6530    14.0720    45.3200 hc         1 WLM       0.062700
     50 H311         7.7820    13.2980    44.3540 hc         1 WLM       0.046533
     51 H312         7.5750    12.6060    45.9740 hc         1 WLM       0.046533
     52 H313         7.2830    11.6070    44.5340 hc         1 WLM       0.046533
     53 H321         5.2610    12.2650    46.9540 hc         1 WLM       0.046533
     54 H322         3.8130    12.5310    45.9660 hc         1 WLM       0.046533
     55 H323         4.8610    11.1320    45.6480 hc         1 WLM       0.046533
@<TRIPOS>BOND
     1     1     2 ar  
     2     1     3 ar  
     3     1     4 1   
     4     2     5 ar  
     5     2     6 1   
     6     3     7 ar  
     7     3    33 1   
     8     4     8 1   
     9     4     9 2   
    10     5    10 ar  
    11     5    34 1   
    12     6    11 1   
    13     7    10 ar  
    14     7    12 1   
    15     8    13 1   
    16     8    35 1   
    17    10    36 1   
    18    11    37 1   
    19    11    38 1   
    20    11    39 1   
    21    13    14 1   
    22    13    40 1   
    23    13    41 1   
    24    14    15 1   
    25    14    42 1   
    26    14    43 1   
    27    15    16 ar  
    28    15    17 ar  
    29    16    18 ar  
    30    16    44 1   
    31    17    19 ar  
    32    17    45 1   
    33    18    20 ar  
    34    18    46 1   
    35    19    20 ar  
    36    19    47 1   
    37    20    21 1   
    38    21    22 1   
    39    21    23 2   
    40    21    24 2   
    41    22    25 1   
    42    22    48 1   
    43    25    26 1   
    44    25    27 2   
    45    26    28 1   
    46    27    29 1   
    47    28    29 2   
    48    28    30 1   
    49    30    31 1   
    50    30    32 1   
    51    30    49 1   
    52    31    50 1   
    53    31    51 1   
    54    31    52 1   
    55    32    53 1   
    56    32    54 1   
    57    32    55 1   
@<TRIPOS>SUBSTRUCTURE
     1 WLM         1 TEMP              0 ****  ****    0 ROOT
