@<TRIPOS>MOLECULE
WLM
   55    57     1     0     0
SMALL
abcg2


@<TRIPOS>ATOM
      1 C1           6.9630     8.9680    44.4850 ca         1 WLM      -0.180600
      2 C2           5.8470     8.8600    43.6270 ca         1 WLM       0.174100
      3 C3           6.7570     8.8480    45.8590 ca         1 WLM      -0.024000
      4 C4           8.3870     9.2240    44.0650 c          1 WLM       0.613700
      5 C5           4.5790     8.6300    44.1640 ca         1 WLM      -0.184000
      6 O6           6.0500     8.9950    42.2930 os         1 WLM      -0.378100
      7 C7           5.4960     8.6240    46.3730 ca         1 WLM       0.072000
      8 N8           8.6750     9.1810    42.7550 ns         1 WLM      -0.501900
      9 O9           9.2560     9.4580    44.9130 o          1 WLM      -0.626100
     10 C10          4.3990     8.5090    45.5330 ca         1 WLM      -0.040000
     11 C11          4.9440     8.8660    41.3920 c3         1 WLM       0.147900
     12 CL           5.2760     8.5030    48.1080 cl         1 WLM      -0.204000
     13 C13         10.0050     9.4690    42.2450 c3         1 WLM       0.115000
     14 C14          9.9710     9.6360    40.7250 c3         1 WLM      -0.062100
     15 C15          9.0070    10.7060    40.2810 ca         1 WLM      -0.014300
     16 C16          7.8990    10.3830    39.4940 ca         1 WLM      -0.124500
     17 C17          9.1810    12.0300    40.6880 ca         1 WLM      -0.124500
     18 C18          6.9690    11.3460    39.1380 ca         1 WLM      -0.006000
     19 C19          8.2580    13.0070    40.3490 ca         1 WLM      -0.006000
     20 C20          7.1540    12.6540    39.5780 ca         1 WLM      -0.328500
     21 S21          5.9200    13.8570    39.2190 sy         1 WLM       1.184600
     22 N22          4.5750    13.3900    40.1040 nu         1 WLM      -0.828000
     23 O23          5.4900    13.7490    37.8510 o          1 WLM      -0.521000
     24 O24          6.3460    15.1240    39.7530 o          1 WLM      -0.521000
     25 C25          4.6230    13.1560    41.4690 cc         1 WLM       0.623300
     26 S26          5.6050    14.0550    42.5790 ss         1 WLM      -0.242800
     27 N27          3.8890    12.2400    42.0270 nd         1 WLM      -0.388000
     28 C28          4.9220    13.0470    43.8380 cc         1 WLM       0.425700
     29 N29          4.0590    12.1940    43.3870 nd         1 WLM      -0.314000
     30 C30          5.3640    13.1720    45.2670 c3         1 WLM      -0.098000
     31 C31          6.8370    12.7550    45.4070 c3         1 WLM      -0.085600
     32 C32          4.4660    12.3670    46.2060 c3         1 WLM      -0.085600
     33 H3           7.6120     8.9460    46.5120 ha         1 WLM       0.158000
     34 H5           3.7190     8.5560    43.5180 ha         1 WLM       0.131000
     35 H8           7.9180     9.0090    42.1100 hn         1 WLM       0.339500
     36 H10          3.4100     8.3400    45.9370 ha         1 WLM       0.134000
     37 H111         4.2130     9.6550    41.5690 h1         1 WLM       0.052367
     38 H112         5.3690     8.9760    40.3990 h1         1 WLM       0.052367
     39 H113         4.4800     7.8840    41.4900 h1         1 WLM       0.052367
     40 H131        10.3760    10.3770    42.7220 h1         1 WLM       0.056700
     41 H132        10.6950     8.6640    42.5090 h1         1 WLM       0.056700
     42 H141        10.9830     9.8840    40.3970 hc         1 WLM       0.064200
     43 H142         9.7020     8.6870    40.2580 hc         1 WLM       0.064200
     44 H16          7.7560     9.3600    39.1710 ha         1 WLM       0.122500
     45 H17         10.0380    12.3010    41.2910 ha         1 WLM       0.122500
     46 H18          6.1060    11.0810    38.5430 ha         1 WLM       0.134500
     47 H19          8.3860    14.0270    40.6790 ha         1 WLM       0.134500
     48 H22          3.9820    12.7360    39.6010 hn         1 WLM       0.512000
     49 H30          5.2880    14.2310    45.5350 hc         1 WLM       0.062700
     50 H311         7.4890    13.3670    44.7830 hc         1 WLM       0.046533
     51 H312         7.1540    12.8660    46.4450 hc         1 WLM       0.046533
     52 H313         6.9630    11.7110    45.1170 hc         1 WLM       0.046533
     53 H321         4.7880    12.5270    47.2360 hc         1 WLM       0.046533
     54 H322         3.4230    12.6720    46.1180 hc         1 WLM       0.046533
     55 H323         4.5300    11.3020    45.9880 hc         1 WLM       0.046533
@<TRIPOS>BOND
     1     1     2 ar  
     2     1     3 ar  
     3     1     4 1   
     4     2     5 ar  
     5     2     6 1   
     6     3     7 ar  
     7     3    33 1   
     8     4     8 1   
     9     4     9 2   
    10     5    10 ar  
    11     5    34 1   
    12     6    11 1   
    13     7    10 ar  
    14     7    12 1   
    15     8    13 1   
    16     8    35 1   
    17    10    36 1   
    18    11    37 1   
    19    11    38 1   
    20    11    39 1   
    21    13    14 1   
    22    13    40 1   
    23    13    41 1   
    24    14    15 1   
    25    14    42 1   
    26    14    43 1   
    27    15    16 ar  
    28    15    17 ar  
    29    16    18 ar  
    30    16    44 1   
    31    17    19 ar  
    32    17    45 1   
    33    18    20 ar  
    34    18    46 1   
    35    19    20 ar  
    36    19    47 1   
    37    20    21 1   
    38    21    22 1   
    39    21    23 2   
    40    21    24 2   
    41    22    25 1   
    42    22    48 1   
    43    25    26 1   
    44    25    27 2   
    45    26    28 1   
    46    27    29 1   
    47    28    29 2   
    48    28    30 1   
    49    30    31 1   
    50    30    32 1   
    51    30    49 1   
    52    31    50 1   
    53    31    51 1   
    54    31    52 1   
    55    32    53 1   
    56    32    54 1   
    57    32    55 1   
@<TRIPOS>SUBSTRUCTURE
     1 WLM         1 TEMP              0 ****  ****    0 ROOT
