@<TRIPOS>MOLECULE
WLN
   41    43     1     0     0
SMALL
No Charge or Current Charge


@<TRIPOS>ATOM
      1 C02          5.0950     7.2230    18.0870 cc         1 WLN      -0.384800
      2 C05          6.2290     7.4570    17.3480 cd         1 WLN       0.309700
      3 C06          5.9660     5.3510    16.1980 c          1 WLN       0.715400
      4 C11          4.8020     7.6340    20.5700 ca         1 WLN      -0.072300
      5 O12          0.7980     4.6950    19.6180 os         1 WLN      -0.454000
      6 C15          3.9400     6.9610    22.7510 ca         1 WLN       0.125000
      7 C17          3.2400     4.4320    19.3320 c6         1 WLN       0.169300
      8 C18          1.9700     6.0420    17.9110 c6         1 WLN       0.169300
      9 C19          6.3170     6.7700    22.2810 ca         1 WLN      -0.104000
     10 C20          2.0340     4.4170    20.3170 c6         1 WLN       0.144100
     11 C21          0.8140     5.9790    18.9510 c6         1 WLN       0.144100
     12 C22          6.1000     7.2810    20.9890 ca         1 WLN      -0.107000
     13 C23          5.2340     6.6070    23.1620 ca         1 WLN      -0.102000
     14 N01          4.8300     5.1140    16.9460 nd         1 WLN      -0.749100
     15 C03          4.4270     5.9870    17.8220 cc         1 WLN       0.790500
     16 N04          6.6760     6.5480    16.4000 n          1 WLN      -0.361000
     17 N07          3.2860     5.6860    18.5180 nh         1 WLN      -0.729600
     18 C08          4.5650     8.1640    19.1600 c3         1 WLN       0.056100
     19 O09          6.3060     4.5040    15.3890 o          1 WLN      -0.540000
     20 O10          6.9440     8.5830    17.5350 oh         1 WLN      -0.528100
     21 C14          3.7230     7.4760    21.4630 ca         1 WLN      -0.093000
     22 Cl16         2.5820     6.7520    23.8490 cl         1 WLN      -0.218000
     23 H28          8.0870     5.9990    14.8620 h1         1 WLN       0.063367
     24 H27          7.7890     7.7370    15.0220 h1         1 WLN       0.063367
     25 H29          8.7790     6.8700    16.2430 h1         1 WLN       0.063367
     26 H32          3.1660     3.5570    18.6700 h1         1 WLN       0.062450
     27 H31          4.1690     4.3230    19.9100 h1         1 WLN       0.062450
     28 H34          2.0070     7.0540    17.4830 h1         1 WLN       0.062450
     29 H33          1.7410     5.3530    17.0850 h1         1 WLN       0.062450
     30 H35          7.3220     6.4970    22.5970 ha         1 WLN       0.116000
     31 H37          2.1820     5.1710    21.1030 h1         1 WLN       0.056200
     32 H36          1.9620     3.4330    20.8020 h1         1 WLN       0.056200
     33 H39         -0.1500     6.1360    18.4470 h1         1 WLN       0.056200
     34 H38          0.9400     6.7750    19.6990 h1         1 WLN       0.056200
     35 H40          6.9420     7.4000    20.3110 ha         1 WLN       0.116000
     36 H41          5.3980     6.2090    24.1610 ha         1 WLN       0.130000
     37 H24          5.0240     9.1560    19.0760 hc         1 WLN       0.058200
     38 H25          3.4960     8.3480    18.9950 hc         1 WLN       0.058200
     39 H26          7.7020     8.5450    16.9230 ho         1 WLN       0.487000
     40 H30          2.7150     7.7420    21.1570 ha         1 WLN       0.133000
     41 C13          7.9010     6.8020    15.5860 c3         1 WLN       0.053300
@<TRIPOS>BOND
     1     1     2 2   
     2     1    15 1   
     3     1    18 1   
     4     2    16 1   
     5     2    20 1   
     6     3    14 1   
     7     3    16 1   
     8     3    19 2   
     9     4    12 ar  
    10     4    18 1   
    11     4    21 ar  
    12     5    10 1   
    13     5    11 1   
    14     6    13 ar  
    15     6    21 ar  
    16     6    22 1   
    17     7    10 1   
    18     7    17 1   
    19     7    26 1   
    20     7    27 1   
    21     8    11 1   
    22     8    17 1   
    23     8    28 1   
    24     8    29 1   
    25     9    12 ar  
    26     9    13 ar  
    27     9    30 1   
    28    10    31 1   
    29    10    32 1   
    30    11    33 1   
    31    11    34 1   
    32    12    35 1   
    33    13    36 1   
    34    14    15 2   
    35    15    17 1   
    36    16    41 1   
    37    18    37 1   
    38    18    38 1   
    39    20    39 1   
    40    21    40 1   
    41    23    41 1   
    42    24    41 1   
    43    25    41 1   
@<TRIPOS>SUBSTRUCTURE
     1 WLN         1 TEMP              0 ****  ****    0 ROOT
