@<TRIPOS>MOLECULE
WLN
   41    43     1     0     0
SMALL
abcg2


@<TRIPOS>ATOM
      1 C02          4.8700     7.1020    18.1390 cc         1 WLN      -0.384800
      2 C05          6.0770     7.2780    17.5020 cd         1 WLN       0.309700
      3 C06          6.1030     4.9890    16.7650 c          1 WLN       0.715400
      4 C11          4.9550     7.7720    20.5420 ca         1 WLN      -0.072300
      5 O12          0.3650     4.9250    19.2350 os         1 WLN      -0.454000
      6 C15          4.7340     6.5900    22.6250 ca         1 WLN       0.125000
      7 C17          2.6070     4.1730    18.6310 c6         1 WLN       0.169300
      8 C18          1.8850     6.4010    18.0510 c6         1 WLN       0.169300
      9 C19          6.7000     7.8750    22.2160 ca         1 WLN      -0.104000
     10 C20          1.4700     4.1170    19.6380 c6         1 WLN       0.144100
     11 C21          0.7600     6.2840    19.0620 c6         1 WLN       0.144100
     12 C22          6.2000     8.2360    20.9700 ca         1 WLN      -0.107000
     13 C23          5.9720     7.0430    23.0590 ca         1 WLN      -0.102000
     14 N01          4.8860     4.8270    17.3260 nd         1 WLN      -0.749100
     15 C03          4.2710     5.8270    17.9450 cc         1 WLN       0.790500
     16 N04          6.6620     6.2900    16.7740 n          1 WLN      -0.361000
     17 N07          3.0200     5.5650    18.4670 nh         1 WLN      -0.729600
     18 C08          4.4170     8.1200    19.1690 c3         1 WLN       0.056100
     19 O09          6.7250     4.0740    16.2190 o          1 WLN      -0.540000
     20 O10          6.7140     8.4470    17.6200 oh         1 WLN      -0.528100
     21 C14          4.2180     6.9430    21.3880 ca         1 WLN      -0.093000
     22 CL16         3.7870     5.5440    23.6700 cl         1 WLN      -0.218000
     23 H28          8.1110     5.6590    15.4460 h1         1 WLN       0.063367
     24 H27          7.8010     7.4050    15.3990 h1         1 WLN       0.063367
     25 H29          8.7430     6.6840    16.7410 h1         1 WLN       0.063367
     26 H32          2.2840     3.7400    17.6770 h1         1 WLN       0.062450
     27 H31          3.4500     3.5900    18.9990 h1         1 WLN       0.062450
     28 H34          2.1850     7.4370    17.9380 h1         1 WLN       0.062450
     29 H33          1.5290     6.0520    17.0720 h1         1 WLN       0.062450
     30 H35          7.6650     8.2460    22.5390 ha         1 WLN       0.116000
     31 H37          1.8300     4.4510    20.6200 h1         1 WLN       0.056200
     32 H36          1.0960     3.0970    19.7250 h1         1 WLN       0.056200
     33 H39         -0.1190     6.8240    18.7090 h1         1 WLN       0.056200
     34 H38          1.0730     6.7050    20.0250 h1         1 WLN       0.056200
     35 H40          6.7780     8.8830    20.3240 ha         1 WLN       0.116000
     36 H41          6.3530     6.7570    24.0300 ha         1 WLN       0.130000
     37 H24          4.7700     9.1080    18.8790 hc         1 WLN       0.058200
     38 H25          3.3350     8.1770    19.2220 hc         1 WLN       0.058200
     39 H26          7.6050     8.4270    17.2440 ho         1 WLN       0.487000
     40 H30          3.2530     6.5690    21.0780 ha         1 WLN       0.133000
     41 C13          7.9100     6.5360    16.0490 c3         1 WLN       0.053300
@<TRIPOS>BOND
     1     1     2 2   
     2     1    15 1   
     3     1    18 1   
     4     2    16 1   
     5     2    20 1   
     6     3    14 1   
     7     3    16 1   
     8     3    19 2   
     9     4    12 ar  
    10     4    18 1   
    11     4    21 ar  
    12     5    10 1   
    13     5    11 1   
    14     6    13 ar  
    15     6    21 ar  
    16     6    22 1   
    17     7    10 1   
    18     7    17 1   
    19     7    26 1   
    20     7    27 1   
    21     8    11 1   
    22     8    17 1   
    23     8    28 1   
    24     8    29 1   
    25     9    12 ar  
    26     9    13 ar  
    27     9    30 1   
    28    10    31 1   
    29    10    32 1   
    30    11    33 1   
    31    11    34 1   
    32    12    35 1   
    33    13    36 1   
    34    14    15 2   
    35    15    17 1   
    36    16    41 1   
    37    18    37 1   
    38    18    38 1   
    39    20    39 1   
    40    21    40 1   
    41    23    41 1   
    42    24    41 1   
    43    25    41 1   
@<TRIPOS>SUBSTRUCTURE
     1 WLN         1 TEMP              0 ****  ****    0 ROOT
