@<TRIPOS>MOLECULE
WLP
   13    13     1     0     0
SMALL
abcg2


@<TRIPOS>ATOM
      1 C10        -30.3180     7.7550     7.2590 ca         1 WLP      -0.100000
      2 C06        -31.4330     9.2570     5.7210 ca         1 WLP      -0.087000
      3 C07        -31.5980     8.1900     4.8390 ca         1 WLP      -0.075000
      4 C08        -31.1440     6.9220     5.1630 ca         1 WLP      -0.107000
      5 C09        -30.4970     6.7050     6.3720 ca         1 WLP      -0.095000
      6 C11        -30.7990     9.0160     6.9390 ca         1 WLP       0.122000
      7 S03        -32.1320    10.8150     5.2700 sh         1 WLP      -0.180800
      8 CL1        -30.5860    10.2960     8.0820 cl         1 WLP      -0.194000
      9 H1         -29.8160     7.5930     8.2030 ha         1 WLP       0.130000
     10 H2         -32.0810     8.3630     3.8860 ha         1 WLP       0.131000
     11 H3         -31.2860     6.1080     4.4650 ha         1 WLP       0.121000
     12 H4         -30.1280     5.7210     6.6290 ha         1 WLP       0.121000
     13 H5         -31.1320    11.6080     5.6690 hs         1 WLP       0.213800
@<TRIPOS>BOND
     1     1     5 ar  
     2     1     6 ar  
     3     1     9 1   
     4     2     3 ar  
     5     2     6 ar  
     6     2     7 1   
     7     3     4 ar  
     8     3    10 1   
     9     4     5 ar  
    10     4    11 1   
    11     5    12 1   
    12     6     8 1   
    13     7    13 1   
@<TRIPOS>SUBSTRUCTURE
     1 WLP         1 TEMP              0 ****  ****    0 ROOT
