@<TRIPOS>MOLECULE
WLP
   13    13     1     0     0
SMALL
No Charge or Current Charge


@<TRIPOS>ATOM
      1 C10        -30.2960     7.7830     7.2370 ca         1 WLP      -0.100000
      2 C06        -31.3740     9.2670     5.6200 ca         1 WLP      -0.087000
      3 C07        -31.5970     8.1610     4.7780 ca         1 WLP      -0.075000
      4 C08        -31.1730     6.8760     5.1600 ca         1 WLP      -0.107000
      5 C09        -30.5220     6.6850     6.3900 ca         1 WLP      -0.095000
      6 C11        -30.7190     9.0680     6.8550 ca         1 WLP       0.122000
      7 S03        -31.9250    10.8880     5.1060 sh         1 WLP      -0.180800
      8 Cl1        -30.4190    10.4230     7.9430 cl         1 WLP      -0.194000
      9 H1         -29.7920     7.6390     8.1900 ha         1 WLP       0.130000
     10 H2         -32.1000     8.3000     3.8230 ha         1 WLP       0.131000
     11 H3         -31.3500     6.0280     4.5010 ha         1 WLP       0.121000
     12 H4         -30.1940     5.6910     6.6850 ha         1 WLP       0.121000
     13 H5         -31.4890    11.5410     6.2100 hs         1 WLP       0.213800
@<TRIPOS>BOND
     1     1     5 ar  
     2     1     6 ar  
     3     1     9 1   
     4     2     3 ar  
     5     2     6 ar  
     6     2     7 1   
     7     3     4 ar  
     8     3    10 1   
     9     4     5 ar  
    10     4    11 1   
    11     5    12 1   
    12     6     8 1   
    13     7    13 1   
@<TRIPOS>SUBSTRUCTURE
     1 WLP         1 TEMP              0 ****  ****    0 ROOT
