@<TRIPOS>MOLECULE
WLQ
   63    66     1     0     0
SMALL
abcg2


@<TRIPOS>ATOM
      1 N1         -45.0810   -25.6530   -63.4240 n3         1 WLQ      -0.735600
      2 N3         -42.9920   -32.0970   -67.5170 nb         1 WLQ      -0.311000
      3 C4         -44.0200   -24.6630   -63.5680 c6         1 WLQ       0.162800
      4 C5         -45.5500   -25.7700   -62.0340 c6         1 WLQ       0.185500
      5 C6         -46.6780   -26.7890   -61.8880 c3         1 WLQ       0.159600
      6 C7         -44.6670   -26.9310   -64.0170 c3         1 WLQ       0.219100
      7 C8         -44.5280   -26.8330   -65.5160 ca         1 WLQ      -0.081300
      8 C10        -45.5340   -26.4740   -67.6900 ca         1 WLQ      -0.096000
      9 C13        -45.4510   -28.3620   -70.7630 ca         1 WLQ       0.320000
     10 C15        -46.6550   -30.1610   -71.8850 ca         1 WLQ      -0.040300
     11 C17        -45.9160   -31.1000   -71.1600 ca         1 WLQ      -0.148000
     12 C20        -43.8980   -32.9530   -69.9640 ca         1 WLQ      -0.110000
     13 C21        -43.1600   -33.8050   -69.1800 ca         1 WLQ      -0.121000
     14 C22        -42.7220   -33.3250   -67.9460 ca         1 WLQ       0.266900
     15 C24        -43.1810   -26.8880   -67.5270 ca         1 WLQ      -0.096000
     16 O1         -46.3560   -24.5080   -60.1580 oh         1 WLQ      -0.728000
     17 C1         -46.0450   -24.3980   -61.5500 c6         1 WLQ       0.147300
     18 C2         -45.0020   -23.3070   -61.7550 c6         1 WLQ       0.103300
     19 O2         -45.5260   -22.0110   -61.4480 oh         1 WLQ      -0.677000
     20 C3         -44.5190   -23.2840   -63.1870 c6         1 WLQ       0.174300
     21 O3         -43.4460   -22.3590   -63.3580 oh         1 WLQ      -0.723000
     22 O4         -46.1340   -28.0790   -61.5800 oh         1 WLQ      -0.672000
     23 C9         -45.6470   -26.5770   -66.3110 ca         1 WLQ      -0.094000
     24 C11        -44.2960   -26.6230   -68.3150 ca         1 WLQ      -0.102300
     25 C12        -44.1520   -26.4760   -69.8180 c3         1 WLQ       0.272100
     26 N2         -45.2660   -27.0110   -70.5730 nu         1 WLQ      -0.973200
     27 C14        -46.4190   -28.8090   -71.6810 ca         1 WLQ      -0.177000
     28 C16        -47.6780   -30.6140   -72.8940 c3         1 WLQ      -0.046800
     29 C18        -44.9510   -30.6790   -70.2440 cp         1 WLQ      -0.110500
     30 C19        -44.1680   -31.6670   -69.4690 cp         1 WLQ       0.351500
     31 N4         -43.7140   -31.2760   -68.2720 nb         1 WLQ      -0.318000
     32 C23        -44.7180   -29.3160   -70.0480 ca         1 WLQ      -0.142000
     33 C25        -43.2950   -26.9890   -66.1430 ca         1 WLQ      -0.094000
     34 H2         -43.1420   -24.9130   -62.9490 h1         1 WLQ       0.054700
     35 H3         -43.6940   -24.6480   -64.6060 h1         1 WLQ       0.054700
     36 H4         -44.7300   -26.0820   -61.3640 h1         1 WLQ       0.059700
     37 H5         -47.3390   -26.4720   -61.0810 h1         1 WLQ       0.037700
     38 H6         -47.2560   -26.8220   -62.8170 h1         1 WLQ       0.037700
     39 H7         -45.4160   -27.6800   -63.7760 h1         1 WLQ       0.053200
     40 H8         -43.7170   -27.2790   -63.5820 h1         1 WLQ       0.053200
     41 H9         -46.4130   -26.2880   -68.2940 ha         1 WLQ       0.114500
     42 H10        -46.1210   -32.1530   -71.2960 ha         1 WLQ       0.109000
     43 H12        -42.9120   -34.8070   -69.5020 ha         1 WLQ       0.129000
     44 H13        -42.1310   -33.9370   -67.2770 h4         1 WLQ       0.027100
     45 H14        -42.2140   -27.0230   -67.9970 ha         1 WLQ       0.114500
     46 H15        -47.0020   -23.8280   -59.9350 ho         1 WLQ       0.506000
     47 H16        -46.9470   -24.1310   -62.1120 h1         1 WLQ       0.055700
     48 H17        -44.1460   -23.5200   -61.1040 h1         1 WLQ       0.056700
     49 H18        -45.4820   -21.8750   -60.4940 ho         1 WLQ       0.449000
     50 H19        -45.3550   -23.0090   -63.8410 h1         1 WLQ       0.059700
     51 H20        -43.7280   -21.5230   -62.9620 ho         1 WLQ       0.517000
     52 H21        -46.8690   -28.6990   -61.4920 ho         1 WLQ       0.445000
     53 H22        -46.6150   -26.4550   -65.8390 ha         1 WLQ       0.114500
     54 H23        -43.2050   -26.9360   -70.1270 h1         1 WLQ       0.045200
     55 H24        -44.0830   -25.4160   -70.0680 h1         1 WLQ       0.045200
     56 H25        -45.6460   -26.4110   -71.2860 hn         1 WLQ       0.477000
     57 H26        -46.9910   -28.0730   -72.2370 ha         1 WLQ       0.108000
     58 H27        -47.2160   -30.7520   -73.8760 hc         1 WLQ       0.042033
     59 H28        -48.1200   -31.5680   -72.6050 hc         1 WLQ       0.042033
     60 H29        -48.4760   -29.8800   -73.0070 hc         1 WLQ       0.042033
     61 H30        -43.9700   -29.0150   -69.3330 ha         1 WLQ       0.141000
     62 H31        -42.4150   -27.1920   -65.5440 ha         1 WLQ       0.114500
     63 H11        -44.2470   -33.2520   -70.9420 ha         1 WLQ       0.132000
@<TRIPOS>BOND
     1     1     3 1   
     2     1     4 1   
     3     1     6 1   
     4     2    14 ar  
     5     2    31 ar  
     6     3    20 1   
     7     3    34 1   
     8     3    35 1   
     9     4     5 1   
    10     4    17 1   
    11     4    36 1   
    12     5    22 1   
    13     5    37 1   
    14     5    38 1   
    15     6     7 1   
    16     6    39 1   
    17     6    40 1   
    18     7    23 ar  
    19     7    33 ar  
    20     8    23 ar  
    21     8    24 ar  
    22     8    41 1   
    23     9    26 1   
    24     9    27 ar  
    25     9    32 ar  
    26    10    11 ar  
    27    10    27 ar  
    28    10    28 1   
    29    11    29 ar  
    30    11    42 1   
    31    12    13 ar  
    32    12    30 ar  
    33    12    63 1   
    34    13    14 ar  
    35    13    43 1   
    36    14    44 1   
    37    15    24 ar  
    38    15    33 ar  
    39    15    45 1   
    40    16    17 1   
    41    16    46 1   
    42    17    18 1   
    43    17    47 1   
    44    18    19 1   
    45    18    20 1   
    46    18    48 1   
    47    19    49 1   
    48    20    21 1   
    49    20    50 1   
    50    21    51 1   
    51    22    52 1   
    52    23    53 1   
    53    24    25 1   
    54    25    26 1   
    55    25    54 1   
    56    25    55 1   
    57    26    56 1   
    58    27    57 1   
    59    28    58 1   
    60    28    59 1   
    61    28    60 1   
    62    29    30 1   
    63    29    32 ar  
    64    30    31 ar  
    65    32    61 1   
    66    33    62 1   
@<TRIPOS>SUBSTRUCTURE
     1 WLQ         1 TEMP              0 ****  ****    0 ROOT
