@<TRIPOS>MOLECULE
WLQ
   63    66     1     0     0
SMALL
No Charge or Current Charge


@<TRIPOS>ATOM
      1 N1         -45.6220   -25.4610   -63.6180 n3         1 WLQ      -0.735600
      2 N3         -41.1640   -32.0520   -68.8100 nb         1 WLQ      -0.311000
      3 C4         -44.2020   -24.9770   -63.6650 c6         1 WLQ       0.162800
      4 C5         -46.1490   -25.5370   -62.1930 c6         1 WLQ       0.185500
      5 C6         -47.6520   -26.0170   -62.0960 c3         1 WLQ       0.159600
      6 C7         -45.8030   -26.7180   -64.4010 c3         1 WLQ       0.219100
      7 C8         -45.3130   -26.6270   -65.8450 ca         1 WLQ      -0.081300
      8 C10        -45.5160   -25.6890   -68.0900 ca         1 WLQ      -0.096000
      9 C13        -45.0820   -28.4880   -70.7610 ca         1 WLQ       0.320000
     10 C15        -46.6760   -30.3190   -70.9410 ca         1 WLQ      -0.040300
     11 C17        -45.6710   -31.2260   -70.5590 ca         1 WLQ      -0.148000
     12 C20        -43.3340   -33.1610   -70.1330 ca         1 WLQ      -0.110000
     13 C21        -42.2740   -33.9880   -69.7090 ca         1 WLQ      -0.121000
     14 C22        -41.1940   -33.3860   -69.0410 ca         1 WLQ       0.266900
     15 C24        -43.7610   -27.3000   -67.6060 ca         1 WLQ      -0.096000
     16 O1         -46.3780   -24.2040   -60.0620 oh         1 WLQ      -0.728000
     17 C1         -45.9730   -24.1520   -61.4520 c6         1 WLQ       0.147300
     18 C2         -44.4890   -23.6950   -61.5070 c6         1 WLQ       0.103300
     19 O2         -44.3170   -22.4310   -60.8340 oh         1 WLQ      -0.677000
     20 C3         -44.0200   -23.5970   -62.9770 c6         1 WLQ       0.174300
     21 O3         -42.6510   -23.1560   -63.0090 oh         1 WLQ      -0.723000
     22 O4         -47.8100   -27.4490   -62.1810 oh         1 WLQ      -0.672000
     23 C9         -45.9630   -25.7780   -66.7600 ca         1 WLQ      -0.094000
     24 C11        -44.4120   -26.4510   -68.5230 ca         1 WLQ      -0.102300
     25 C12        -43.9310   -26.3560   -69.9670 c3         1 WLQ       0.272100
     26 N2         -44.8140   -27.1220   -70.8630 nu         1 WLQ      -0.973200
     27 C14        -46.3730   -28.9510   -71.0440 ca         1 WLQ      -0.177000
     28 C16        -48.0820   -30.8180   -71.2390 c3         1 WLQ      -0.046800
     29 C18        -44.3470   -30.7950   -70.2750 cp         1 WLQ      -0.110500
     30 C19        -43.2680   -31.7670   -69.8650 cp         1 WLQ       0.351500
     31 N4         -42.1830   -31.2650   -69.2170 nb         1 WLQ      -0.318000
     32 C23        -44.0820   -29.4020   -70.3870 ca         1 WLQ      -0.142000
     33 C25        -44.2090   -27.3880   -66.2760 ca         1 WLQ      -0.094000
     34 H2         -43.5350   -25.7090   -63.1850 h1         1 WLQ       0.054700
     35 H3         -43.8620   -24.8700   -64.7050 h1         1 WLQ       0.054700
     36 H4         -45.5530   -26.2720   -61.6320 h1         1 WLQ       0.059700
     37 H5         -48.0770   -25.6820   -61.1420 h1         1 WLQ       0.037700
     38 H6         -48.2260   -25.5170   -62.8890 h1         1 WLQ       0.037700
     39 H7         -46.8660   -26.9820   -64.4580 h1         1 WLQ       0.053200
     40 H8         -45.2920   -27.5510   -63.8990 h1         1 WLQ       0.053200
     41 H9         -46.0290   -25.0300   -68.7860 ha         1 WLQ       0.114500
     42 H10        -45.9330   -32.2770   -70.4710 ha         1 WLQ       0.109000
     43 H12        -42.2830   -35.0580   -69.8950 ha         1 WLQ       0.129000
     44 H13        -40.3450   -33.9710   -68.6900 h4         1 WLQ       0.027100
     45 H14        -42.9070   -27.8940   -67.9220 ha         1 WLQ       0.114500
     46 H15        -47.3280   -23.9440   -60.0200 ho         1 WLQ       0.506000
     47 H16        -46.5780   -23.4050   -61.9890 h1         1 WLQ       0.055700
     48 H17        -43.8830   -24.4650   -61.0050 h1         1 WLQ       0.056700
     49 H18        -44.8770   -22.5020   -60.0260 ho         1 WLQ       0.449000
     50 H19        -44.6590   -22.8690   -63.5000 h1         1 WLQ       0.059700
     51 H20        -42.5940   -22.5150   -62.2590 ho         1 WLQ       0.517000
     52 H21        -48.7720   -27.6370   -62.1050 ho         1 WLQ       0.445000
     53 H22        -46.8140   -25.1830   -66.4370 ha         1 WLQ       0.114500
     54 H23        -42.8990   -26.7260   -70.0400 h1         1 WLQ       0.045200
     55 H24        -43.9170   -25.3000   -70.2710 h1         1 WLQ       0.045200
     56 H25        -45.5820   -26.5830   -71.2660 hn         1 WLQ       0.477000
     57 H26        -47.1460   -28.2470   -71.3380 ha         1 WLQ       0.108000
     58 H27        -48.1610   -31.1660   -72.2750 hc         1 WLQ       0.042033
     59 H28        -48.3560   -31.6530   -70.5830 hc         1 WLQ       0.042033
     60 H29        -48.8290   -30.0280   -71.0930 hc         1 WLQ       0.042033
     61 H30        -43.0820   -29.0280   -70.1940 ha         1 WLQ       0.141000
     62 H31        -43.6950   -28.0480   -65.5810 ha         1 WLQ       0.114500
     63 H11        -44.1750   -33.5910   -70.6660 ha         1 WLQ       0.132000
@<TRIPOS>BOND
     1     1     3 1   
     2     1     4 1   
     3     1     6 1   
     4     2    14 ar  
     5     2    31 ar  
     6     3    20 1   
     7     3    34 1   
     8     3    35 1   
     9     4     5 1   
    10     4    17 1   
    11     4    36 1   
    12     5    22 1   
    13     5    37 1   
    14     5    38 1   
    15     6     7 1   
    16     6    39 1   
    17     6    40 1   
    18     7    23 ar  
    19     7    33 ar  
    20     8    23 ar  
    21     8    24 ar  
    22     8    41 1   
    23     9    26 1   
    24     9    27 ar  
    25     9    32 ar  
    26    10    11 ar  
    27    10    27 ar  
    28    10    28 1   
    29    11    29 ar  
    30    11    42 1   
    31    12    13 ar  
    32    12    30 ar  
    33    12    63 1   
    34    13    14 ar  
    35    13    43 1   
    36    14    44 1   
    37    15    24 ar  
    38    15    33 ar  
    39    15    45 1   
    40    16    17 1   
    41    16    46 1   
    42    17    18 1   
    43    17    47 1   
    44    18    19 1   
    45    18    20 1   
    46    18    48 1   
    47    19    49 1   
    48    20    21 1   
    49    20    50 1   
    50    21    51 1   
    51    22    52 1   
    52    23    53 1   
    53    24    25 1   
    54    25    26 1   
    55    25    54 1   
    56    25    55 1   
    57    26    56 1   
    58    27    57 1   
    59    28    58 1   
    60    28    59 1   
    61    28    60 1   
    62    29    30 1   
    63    29    32 ar  
    64    30    31 ar  
    65    32    61 1   
    66    33    62 1   
@<TRIPOS>SUBSTRUCTURE
     1 WLQ         1 TEMP              0 ****  ****    0 ROOT
