@<TRIPOS>MOLECULE
WLR
   37    38     1     0     0
SMALL
abcg2


@<TRIPOS>ATOM
      1 C01          7.9650     8.5420    17.7460 c6         1 WLR      -0.078400
      2 C02          7.2890     7.9080    18.9620 c6         1 WLR      -0.069400
      3 C04          6.5500     5.9310    17.5210 c6         1 WLR      -0.041700
      4 C05          7.2320     6.5980    16.3030 c6         1 WLR      -0.183700
      5 C06          7.2830     8.1210    16.4420 c6         1 WLR      -0.055400
      6 C07          6.6110     6.0880    14.9800 c          1 WLR       0.705000
      7 O08          5.9900     6.9060    14.2550 o          1 WLR      -0.732000
      8 C10          5.0470     6.1760    17.5190 c3         1 WLR       0.164600
      9 C15          2.2510     6.1690    17.9790 ca         1 WLR      -0.149000
     10 C16          0.8860     6.1060    18.2500 ca         1 WLR      -0.151300
     11 C17          0.3790     5.2820    19.2500 ca         1 WLR      -0.124000
     12 C18          1.2650     4.5090    19.9930 ca         1 WLR      -0.089000
     13 C19          2.6270     4.5590    19.7420 ca         1 WLR      -0.135000
     14 C20         -0.0820     6.9220    17.4430 c3         1 WLR       0.339300
     15 C03          7.2210     6.3850    18.8270 c6         1 WLR      -0.072400
     16 O09          6.7720     4.8630    14.7330 o          1 WLR      -0.732000
     17 O13          4.4700     5.3680    18.5580 os         1 WLR      -0.359100
     18 C14          3.1280     5.3880    18.7340 ca         1 WLR       0.168100
     19 F21          0.5180     7.7780    16.5930 f          1 WLR      -0.118000
     20 F22         -0.8990     6.1410    16.6890 f          1 WLR      -0.118000
     21 F23         -0.8990     7.6670    18.2290 f          1 WLR      -0.118000
     22 H24          7.9650     9.6320    17.8380 hc         1 WLR       0.019700
     23 H25          9.0160     8.2290    17.7190 hc         1 WLR       0.019700
     24 H26          7.8280     8.1710    19.8770 hc         1 WLR       0.020700
     25 H27          6.2800     8.3180    19.0700 hc         1 WLR       0.020700
     26 H12          6.6860     4.8520    17.4170 hc         1 WLR       0.073700
     27 H11          8.2640     6.2290    16.3070 hc         1 WLR       0.038700
     28 H31          6.2720     8.5350    16.4060 hc         1 WLR       0.042200
     29 H30          7.8160     8.5430    15.5860 hc         1 WLR       0.042200
     30 H34          4.7990     7.2240    17.7040 h1         1 WLR       0.054700
     31 H33          4.6120     5.8850    16.5610 h1         1 WLR       0.054700
     32 H35          2.6150     6.8130    17.1950 ha         1 WLR       0.152000
     33 H36         -0.6830     5.2450    19.4460 ha         1 WLR       0.116000
     34 H37          0.8890     3.8620    20.7750 ha         1 WLR       0.108000
     35 H38          3.3220     3.9590    20.3160 ha         1 WLR       0.126000
     36 H28          8.2390     5.9840    18.8390 hc         1 WLR       0.029700
     37 H29          6.7010     5.9490    19.6820 hc         1 WLR       0.029700
@<TRIPOS>BOND
     1     1     2 1   
     2     1     5 1   
     3     1    22 1   
     4     1    23 1   
     5     2    15 1   
     6     2    24 1   
     7     2    25 1   
     8     3     4 1   
     9     3     8 1   
    10     3    15 1   
    11     3    26 1   
    12     4     5 1   
    13     4     6 1   
    14     4    27 1   
    15     5    28 1   
    16     5    29 1   
    17     6     7 1   
    18     6    16 1   
    19     8    17 1   
    20     8    30 1   
    21     8    31 1   
    22     9    10 ar  
    23     9    18 ar  
    24     9    32 1   
    25    10    11 ar  
    26    10    14 1   
    27    11    12 ar  
    28    11    33 1   
    29    12    13 ar  
    30    12    34 1   
    31    13    18 ar  
    32    13    35 1   
    33    14    19 1   
    34    14    20 1   
    35    14    21 1   
    36    15    36 1   
    37    15    37 1   
    38    17    18 1   
@<TRIPOS>SUBSTRUCTURE
     1 WLR         1 TEMP              0 ****  ****    0 ROOT
