@<TRIPOS>MOLECULE
WLR
   37    38     1     0     0
SMALL
No Charge or Current Charge


@<TRIPOS>ATOM
      1 C01          7.9410     8.5240    17.8000 c6         1 WLR      -0.078400
      2 C02          7.2340     7.8090    18.9770 c6         1 WLR      -0.069400
      3 C04          6.5700     5.8570    17.4250 c6         1 WLR      -0.041700
      4 C05          7.3240     6.5750    16.2500 c6         1 WLR      -0.183700
      5 C06          7.3300     8.1220    16.4340 c6         1 WLR      -0.055400
      6 C07          6.8540     6.1420    14.8350 c          1 WLR       0.705000
      7 O08          5.7650     6.5220    14.4340 o          1 WLR      -0.732000
      8 C10          5.0210     6.0840    17.4220 c3         1 WLR       0.164600
      9 C15          2.1630     6.1320    17.9840 ca         1 WLR      -0.149000
     10 C16          0.7840     6.1430    18.2950 ca         1 WLR      -0.151300
     11 C17          0.3300     5.4060    19.4110 ca         1 WLR      -0.124000
     12 C18          1.2350     4.6860    20.2070 ca         1 WLR      -0.089000
     13 C19          2.6040     4.6890    19.8940 ca         1 WLR      -0.135000
     14 C20         -0.2020     6.9250    17.4150 c3         1 WLR       0.339300
     15 C03          7.2300     6.2720    18.7780 c6         1 WLR      -0.072400
     16 O09          7.6330     5.4960    14.1500 o          1 WLR      -0.732000
     17 O13          4.4300     5.3700    18.5240 os         1 WLR      -0.359100
     18 C14          3.0750     5.4070    18.7840 ca         1 WLR       0.168100
     19 F21          0.3350     8.0730    16.9420 f          1 WLR      -0.118000
     20 F22         -0.5860     6.1970    16.3420 f          1 WLR      -0.118000
     21 F23         -1.3290     7.2730    18.0780 f          1 WLR      -0.118000
     22 H24          7.8740     9.6130    17.9310 hc         1 WLR       0.019700
     23 H25          9.0110     8.2760    17.8100 hc         1 WLR       0.019700
     24 H26          7.7430     8.0580    19.9190 hc         1 WLR       0.020700
     25 H27          6.2050     8.1810    19.0770 hc         1 WLR       0.020700
     26 H12          6.7040     4.7730    17.3010 hc         1 WLR       0.073700
     27 H11          8.3660     6.2330    16.3240 hc         1 WLR       0.038700
     28 H31          6.3100     8.5220    16.3510 hc         1 WLR       0.042200
     29 H30          7.9090     8.5880    15.6250 hc         1 WLR       0.042200
     30 H34          4.8070     7.1570    17.4990 h1         1 WLR       0.054700
     31 H33          4.6020     5.7130    16.4800 h1         1 WLR       0.054700
     32 H35          2.5110     6.6860    17.1170 ha         1 WLR       0.152000
     33 H36         -0.7280     5.3860    19.6670 ha         1 WLR       0.116000
     34 H37          0.8760     4.1230    21.0660 ha         1 WLR       0.108000
     35 H38          3.3040     4.1320    20.5110 ha         1 WLR       0.126000
     36 H28          8.2660     5.9040    18.8030 hc         1 WLR       0.029700
     37 H29          6.7250     5.7880    19.6240 hc         1 WLR       0.029700
@<TRIPOS>BOND
     1     1     2 1   
     2     1     5 1   
     3     1    22 1   
     4     1    23 1   
     5     2    15 1   
     6     2    24 1   
     7     2    25 1   
     8     3     4 1   
     9     3     8 1   
    10     3    15 1   
    11     3    26 1   
    12     4     5 1   
    13     4     6 1   
    14     4    27 1   
    15     5    28 1   
    16     5    29 1   
    17     6     7 1   
    18     6    16 1   
    19     8    17 1   
    20     8    30 1   
    21     8    31 1   
    22     9    10 ar  
    23     9    18 ar  
    24     9    32 1   
    25    10    11 ar  
    26    10    14 1   
    27    11    12 ar  
    28    11    33 1   
    29    12    13 ar  
    30    12    34 1   
    31    13    18 ar  
    32    13    35 1   
    33    14    19 1   
    34    14    20 1   
    35    14    21 1   
    36    15    36 1   
    37    15    37 1   
    38    17    18 1   
@<TRIPOS>SUBSTRUCTURE
     1 WLR         1 TEMP              0 ****  ****    0 ROOT
