@<TRIPOS>MOLECULE
WLS
   26    27     1     0     0
SMALL
No Charge or Current Charge


@<TRIPOS>ATOM
      1 C10        -35.0520    22.0880    -1.6620 cc         1 WLS      -0.223300
      2 C13        -33.9930    22.4060    -3.9220 cc         1 WLS      -0.252000
      3 C01        -35.7670    21.5560    -0.4560 c3         1 WLS       0.236100
      4 C03        -37.9710    21.6410     0.6840 c3         1 WLS       0.206100
      5 C04        -39.3800    22.2080     0.5630 ca         1 WLS      -0.050300
      6 C05        -40.3660    21.5500    -0.1950 ca         1 WLS      -0.155000
      7 C06        -41.6530    22.1060    -0.2850 ca         1 WLS       0.331400
      8 C08        -41.0530    23.8960     1.0580 ca         1 WLS       0.331400
      9 C09        -39.7420    23.4090     1.1990 ca         1 WLS      -0.155000
     10 C11        -34.4400    23.3080    -1.8150 cd         1 WLS      -0.132000
     11 C12        -33.8440    23.4880    -3.0920 cd         1 WLS      -0.133000
     12 N02        -37.1600    22.0180    -0.4860 n7         1 WLS      -0.875400
     13 N07        -42.0020    23.2610     0.3300 nb         1 WLS      -0.664000
     14 S14        -34.8940    21.1180    -3.1250 ss         1 WLS       0.236000
     15 H1         -33.6450    22.2660    -4.9370 h4         1 WLS       0.149000
     16 H2         -35.7190    20.4580    -0.4540 h1         1 WLS       0.043200
     17 H3         -35.2550    21.9150     0.4490 h1         1 WLS       0.043200
     18 H4         -38.0330    20.5470     0.7730 h1         1 WLS       0.042200
     19 H5         -37.5120    22.0170     1.6090 h1         1 WLS       0.042200
     20 H6         -40.1420    20.6220    -0.7120 ha         1 WLS       0.129000
     21 H7         -42.4310    21.6130    -0.8670 h4         1 WLS       0.017600
     22 H8         -41.3550    24.8240     1.5430 h4         1 WLS       0.017600
     23 H9         -39.0240    23.9640     1.7960 ha         1 WLS       0.129000
     24 H10        -34.4140    24.0640    -1.0350 ha         1 WLS       0.130000
     25 H11        -33.3180    24.3930    -3.3820 ha         1 WLS       0.132000
     26 H12        -37.1400    23.0430    -0.5400 hn         1 WLS       0.422000
@<TRIPOS>BOND
     1     1     3 1   
     2     1    10 2   
     3     1    14 1   
     4     2    11 2   
     5     2    14 1   
     6     2    15 1   
     7     3    12 1   
     8     3    16 1   
     9     3    17 1   
    10     4     5 1   
    11     4    12 1   
    12     4    18 1   
    13     4    19 1   
    14     5     6 ar  
    15     5     9 ar  
    16     6     7 ar  
    17     6    20 1   
    18     7    13 ar  
    19     7    21 1   
    20     8     9 ar  
    21     8    13 ar  
    22     8    22 1   
    23     9    23 1   
    24    10    11 1   
    25    10    24 1   
    26    11    25 1   
    27    12    26 1   
@<TRIPOS>SUBSTRUCTURE
     1 WLS         1 TEMP              0 ****  ****    0 ROOT
