@<TRIPOS>MOLECULE
WLS
   26    27     1     0     0
SMALL
bcc


@<TRIPOS>ATOM
      1 C10        -35.0800    22.3340    -1.6380 cc         1 WLS      -0.078400
      2 C13        -34.5700    22.1910    -4.0560 cc         1 WLS      -0.125100
      3 C01        -35.7420    22.2180    -0.3050 c3         1 WLS       0.236100
      4 C03        -37.8870    22.2810     0.8100 c3         1 WLS       0.206100
      5 C04        -39.3720    22.4130     0.6130 ca         1 WLS      -0.050300
      6 C05        -39.9840    22.1090    -0.5980 ca         1 WLS      -0.238300
      7 C06        -41.3620    22.2160    -0.7010 ca         1 WLS       0.396700
      8 C08        -41.5650    22.8930     1.4520 ca         1 WLS       0.396700
      9 C09        -40.1960    22.8200     1.6570 ca         1 WLS      -0.238300
     10 C11        -33.8230    22.7610    -1.9400 cd         1 WLS      -0.150000
     11 C12        -33.5270    22.6770    -3.3310 cd         1 WLS      -0.151000
     12 N02        -37.1570    22.5060    -0.4160 n7         1 WLS      -0.820200
     13 N07        -42.1510    22.5990     0.2970 nb         1 WLS      -0.664000
     14 S14        -35.9200    21.8340    -3.0580 ss         1 WLS      -0.053800
     15 H1         -34.6240    22.0440    -5.1240 h4         1 WLS       0.167000
     16 H2         -35.6390    21.1930     0.0670 h1         1 WLS       0.043200
     17 H3         -35.2100    22.8590     0.4120 h1         1 WLS       0.043200
     18 H4         -37.6800    21.2590     1.1450 h1         1 WLS       0.042200
     19 H5         -37.5720    22.9340     1.6370 h1         1 WLS       0.042200
     20 H6         -39.3980    21.7960    -1.4510 ha         1 WLS       0.147000
     21 H7         -41.8520    21.9790    -1.6400 h4         1 WLS       0.017600
     22 H8         -42.2150    23.2090     2.2610 h4         1 WLS       0.017600
     23 H9         -39.7820    23.0860     2.6220 ha         1 WLS       0.147000
     24 H10        -33.1290    23.1250    -1.1950 ha         1 WLS       0.148000
     25 H11        -32.5840    22.9770    -3.7660 ha         1 WLS       0.150000
     26 H12        -37.2840    23.4660    -0.7160 hn         1 WLS       0.366800
@<TRIPOS>BOND
     1     1     3 1   
     2     1    10 2   
     3     1    14 1   
     4     2    11 2   
     5     2    14 1   
     6     2    15 1   
     7     3    12 1   
     8     3    16 1   
     9     3    17 1   
    10     4     5 1   
    11     4    12 1   
    12     4    18 1   
    13     4    19 1   
    14     5     6 ar  
    15     5     9 ar  
    16     6     7 ar  
    17     6    20 1   
    18     7    13 ar  
    19     7    21 1   
    20     8     9 ar  
    21     8    13 ar  
    22     8    22 1   
    23     9    23 1   
    24    10    11 1   
    25    10    24 1   
    26    11    25 1   
    27    12    26 1   
@<TRIPOS>SUBSTRUCTURE
     1 WLS         1 TEMP              0 ****  ****    0 ROOT
