@<TRIPOS>MOLECULE
WLU
   25    24     1     0     0
SMALL
No Charge or Current Charge


@<TRIPOS>ATOM
      1 N          -25.9280    12.9010    -7.1140 n7         1 WLU      -0.832400
      2 CN         -27.0370    13.6700    -7.7170 c3         1 WLU       0.158100
      3 CA         -24.6350    12.8350    -7.8910 c3         1 WLU       0.029500
      4 CB         -24.8010    11.8920    -9.1250 c3         1 WLU      -0.070400
      5 CG         -23.4980    11.5860    -9.9300 c3         1 WLU      -0.053700
      6 CG1        -23.7760    10.6880   -11.1650 c3         1 WLU       0.164600
      7 O4         -24.6020    11.3640   -12.1190 oh         1 WLU      -0.640000
      8 CG2        -22.3940    10.9480    -9.0490 c3         1 WLU      -0.085100
      9 C          -23.9850    14.2380    -8.2530 c          1 WLU       0.724000
     10 O          -24.3390    14.8230    -9.2710 o          1 WLU      -0.727500
     11 OXT        -23.1280    14.6860    -7.5010 o          1 WLU      -0.727500
     12 H1         -26.2560    11.9430    -6.9490 hn         1 WLU       0.359000
     13 H3         -27.9100    13.6620    -7.0510 h1         1 WLU       0.015367
     14 H4         -26.7480    14.7170    -7.8800 h1         1 WLU       0.015367
     15 H5         -27.3430    13.2390    -8.6790 h1         1 WLU       0.015367
     16 H6         -23.9060    12.3470    -7.2320 h1         1 WLU       0.036700
     17 H7         -25.5380    12.3330    -9.8070 hc         1 WLU       0.024200
     18 H8         -25.2290    10.9400    -8.7860 hc         1 WLU       0.024200
     19 H9         -23.0990    12.5330   -10.3120 hc         1 WLU       0.095700
     20 H10        -24.2580     9.7570   -10.8390 h1         1 WLU      -0.005300
     21 H11        -22.8220    10.4210   -11.6380 h1         1 WLU      -0.005300
     22 H12        -24.7410    10.7410   -12.8650 ho         1 WLU       0.416000
     23 H13        -22.0610    11.6370    -8.2660 hc         1 WLU       0.023033
     24 H14        -22.7570    10.0290    -8.5730 hc         1 WLU       0.023033
     25 H15        -21.5160    10.6940    -9.6550 hc         1 WLU       0.023033
@<TRIPOS>BOND
     1     1     2 1   
     2     1     3 1   
     3     1    12 1   
     4     2    13 1   
     5     2    14 1   
     6     2    15 1   
     7     3     4 1   
     8     3     9 1   
     9     3    16 1   
    10     4     5 1   
    11     4    17 1   
    12     4    18 1   
    13     5     6 1   
    14     5     8 1   
    15     5    19 1   
    16     6     7 1   
    17     6    20 1   
    18     6    21 1   
    19     7    22 1   
    20     8    23 1   
    21     8    24 1   
    22     8    25 1   
    23     9    10 1   
    24     9    11 1   
@<TRIPOS>SUBSTRUCTURE
     1 WLU         1 TEMP              0 ****  ****    0 ROOT
