@<TRIPOS>MOLECULE
WLU
   25    24     1     0     0
SMALL
bcc


@<TRIPOS>ATOM
      1 N          -25.7850    12.9940    -7.1170 n7         1 WLU      -0.777200
      2 CN         -26.9500    13.5650    -7.7660 c3         1 WLU       0.158100
      3 CA         -24.5820    12.8670    -7.9460 c3         1 WLU       0.029500
      4 CB         -24.7640    11.9450    -9.1520 c3         1 WLU      -0.070400
      5 CG         -23.4810    11.5930    -9.9090 c3         1 WLU      -0.053700
      6 CG1        -23.7800    10.7550   -11.1450 c3         1 WLU       0.141400
      7 O4         -24.6000    11.4740   -12.0400 oh         1 WLU      -0.577800
      8 CG2        -22.4850    10.8270    -9.0420 c3         1 WLU      -0.085100
      9 C          -24.0800    14.2930    -8.3080 c          1 WLU       0.934600
     10 O          -24.3290    14.7230    -9.4530 o          1 WLU      -0.832800
     11 OXT        -23.4830    14.9050    -7.4000 o          1 WLU      -0.832800
     12 H1         -26.0290    12.0730    -6.7730 hn         1 WLU       0.303800
     13 H3         -27.7870    13.5430    -7.0680 h1         1 WLU       0.015367
     14 H4         -26.7730    14.6100    -8.0210 h1         1 WLU       0.015367
     15 H5         -27.2750    13.0570    -8.6830 h1         1 WLU       0.015367
     16 H6         -23.8320    12.4250    -7.2810 h1         1 WLU       0.036700
     17 H7         -25.4760    12.3940    -9.8450 hc         1 WLU       0.024200
     18 H8         -25.2190    11.0070    -8.8030 hc         1 WLU       0.024200
     19 H9         -23.0020    12.5190   -10.2430 hc         1 WLU       0.095700
     20 H10        -24.2610     9.8180   -10.8270 h1         1 WLU      -0.005300
     21 H11        -22.8300    10.4750   -11.6230 h1         1 WLU      -0.005300
     22 H12        -24.8340    10.8890   -12.7670 ho         1 WLU       0.377000
     23 H13        -22.1580    11.4090    -8.1800 hc         1 WLU       0.023033
     24 H14        -22.9220     9.8990    -8.6650 hc         1 WLU       0.023033
     25 H15        -21.5890    10.5640    -9.6080 hc         1 WLU       0.023033
@<TRIPOS>BOND
     1     1     2 1   
     2     1     3 1   
     3     1    12 1   
     4     2    13 1   
     5     2    14 1   
     6     2    15 1   
     7     3     4 1   
     8     3     9 1   
     9     3    16 1   
    10     4     5 1   
    11     4    17 1   
    12     4    18 1   
    13     5     6 1   
    14     5     8 1   
    15     5    19 1   
    16     6     7 1   
    17     6    20 1   
    18     6    21 1   
    19     7    22 1   
    20     8    23 1   
    21     8    24 1   
    22     8    25 1   
    23     9    10 1   
    24     9    11 1   
@<TRIPOS>SUBSTRUCTURE
     1 WLU         1 TEMP              0 ****  ****    0 ROOT
