@<TRIPOS>MOLECULE
WLV
   30    31     1     0     0
SMALL
No Charge or Current Charge


@<TRIPOS>ATOM
      1 C10        -31.5670    22.7840    -0.0150 c3         1 WLV       0.078600
      2 C13        -28.7710    22.3940    -0.7300 ca         1 WLV      -0.168000
      3 C15        -26.4430    22.3250    -0.0140 ca         1 WLV      -0.145000
      4 C17        -28.1980    22.7940     1.6030 ca         1 WLV      -0.168000
      5 C02        -33.8160    22.5030    -3.8000 ca         1 WLV       0.185000
      6 C03        -34.6460    21.4120    -4.0960 ca         1 WLV      -0.154000
      7 C04        -35.2830    20.7180    -3.0550 ca         1 WLV      -0.070000
      8 C05        -35.0790    21.1140    -1.7210 ca         1 WLV      -0.142000
      9 C06        -34.2270    22.1930    -1.4170 ca         1 WLV      -0.020000
     10 C08        -32.9540    23.0330     0.6320 c          1 WLV       0.611100
     11 C12        -29.1700    22.6860     0.5940 ca         1 WLV       0.136100
     12 C14        -27.4080    22.2140    -1.0290 ca         1 WLV      -0.075000
     13 C16        -26.8370    22.6140     1.3030 ca         1 WLV      -0.075000
     14 C18        -33.6090    22.9000    -2.4690 ca         1 WLV      -0.170000
     15 N07        -34.0610    22.5620    -0.0590 ns         1 WLV      -0.182000
     16 O09        -33.0860    23.5250     1.7490 o          1 WLV      -0.550100
     17 O11        -30.4900    22.8720     0.9480 os         1 WLV      -0.317100
     18 H1         -31.4250    23.5320    -0.8020 h1         1 WLV       0.055200
     19 H2         -31.5870    21.7900    -0.4790 h1         1 WLV       0.055200
     20 H3         -29.4960    22.3030    -1.5330 ha         1 WLV       0.122500
     21 H4         -25.3900    22.1850    -0.2480 ha         1 WLV       0.115000
     22 H5         -28.5030    23.0180     2.6220 ha         1 WLV       0.122500
     23 H6         -34.8010    21.1130    -5.1300 ha         1 WLV       0.138000
     24 H7         -35.9360    19.8760    -3.2790 ha         1 WLV       0.124000
     25 H8         -35.5770    20.5720    -0.9200 ha         1 WLV       0.129000
     26 H9         -27.1010    21.9900    -2.0490 ha         1 WLV       0.113000
     27 H10        -26.0890    22.7000     2.0890 ha         1 WLV       0.113000
     28 H11        -32.9940    23.7730    -2.2760 ha         1 WLV       0.142000
     29 H12        -34.9220    22.5860     0.4730 hn         1 WLV       0.167000
     30 F01        -33.2210    23.1850    -4.8020 f          1 WLV      -0.172000
@<TRIPOS>BOND
     1     1    10 1   
     2     1    17 1   
     3     1    18 1   
     4     1    19 1   
     5     2    11 ar  
     6     2    12 ar  
     7     2    20 1   
     8     3    12 ar  
     9     3    13 ar  
    10     3    21 1   
    11     4    11 ar  
    12     4    13 ar  
    13     4    22 1   
    14     5     6 ar  
    15     5    14 ar  
    16     5    30 1   
    17     6     7 ar  
    18     6    23 1   
    19     7     8 ar  
    20     7    24 1   
    21     8     9 ar  
    22     8    25 1   
    23     9    14 ar  
    24     9    15 1   
    25    10    15 1   
    26    10    16 2   
    27    11    17 1   
    28    12    26 1   
    29    13    27 1   
    30    14    28 1   
    31    15    29 1   
@<TRIPOS>SUBSTRUCTURE
     1 WLV         1 TEMP              0 ****  ****    0 ROOT
