@<TRIPOS>MOLECULE
WLV
   30    31     1     0     0
SMALL
abcg2


@<TRIPOS>ATOM
      1 C10        -31.6360    22.7590    -0.0480 c3         1 WLV       0.078600
      2 C13        -28.9660    22.3610    -0.8020 ca         1 WLV      -0.168000
      3 C15        -26.6500    22.2620    -0.1170 ca         1 WLV      -0.145000
      4 C17        -28.3780    22.6610     1.5170 ca         1 WLV      -0.168000
      5 C02        -33.7490    22.5750    -3.7180 ca         1 WLV       0.185000
      6 C03        -34.3280    21.3480    -3.9740 ca         1 WLV      -0.154000
      7 C04        -34.8290    20.6240    -2.9000 ca         1 WLV      -0.070000
      8 C05        -34.7330    21.1130    -1.6060 ca         1 WLV      -0.142000
      9 C06        -34.1420    22.3520    -1.3790 ca         1 WLV      -0.020000
     10 C08        -32.9440    23.0620     0.6650 c          1 WLV       0.611100
     11 C12        -29.3480    22.5980     0.5150 ca         1 WLV       0.136100
     12 C14        -27.6170    22.1960    -1.1050 ca         1 WLV      -0.075000
     13 C16        -27.0420    22.4940     1.1980 ca         1 WLV      -0.075000
     14 C18        -33.6580    23.1030    -2.4450 ca         1 WLV      -0.170000
     15 N07        -34.0690    22.8600    -0.0620 ns         1 WLV      -0.182000
     16 O09        -32.9770    23.4570     1.8120 o          1 WLV      -0.550100
     17 O11        -30.6250    22.7790     0.9200 os         1 WLV      -0.317100
     18 H1         -31.4590    23.5140    -0.8230 h1         1 WLV       0.055200
     19 H2         -31.6950    21.7850    -0.5500 h1         1 WLV       0.055200
     20 H3         -29.6900    22.3020    -1.6030 ha         1 WLV       0.122500
     21 H4         -25.6040    22.1330    -0.3620 ha         1 WLV       0.115000
     22 H5         -28.6810    22.8430     2.5400 ha         1 WLV       0.122500
     23 H6         -34.3920    20.9680    -4.9850 ha         1 WLV       0.138000
     24 H7         -35.2900    19.6620    -3.0780 ha         1 WLV       0.124000
     25 H8         -35.1090    20.5360    -0.7720 ha         1 WLV       0.129000
     26 H9         -27.3320    22.0140    -2.1340 ha         1 WLV       0.113000
     27 H10        -26.3000    22.5470     1.9840 ha         1 WLV       0.113000
     28 H11        -33.2350    24.0880    -2.2910 ha         1 WLV       0.142000
     29 H12        -34.9400    22.9760     0.4380 hn         1 WLV       0.167000
     30 F01        -33.2710    23.2940    -4.7440 f          1 WLV      -0.172000
@<TRIPOS>BOND
     1     1    10 1   
     2     1    17 1   
     3     1    18 1   
     4     1    19 1   
     5     2    11 ar  
     6     2    12 ar  
     7     2    20 1   
     8     3    12 ar  
     9     3    13 ar  
    10     3    21 1   
    11     4    11 ar  
    12     4    13 ar  
    13     4    22 1   
    14     5     6 ar  
    15     5    14 ar  
    16     5    30 1   
    17     6     7 ar  
    18     6    23 1   
    19     7     8 ar  
    20     7    24 1   
    21     8     9 ar  
    22     8    25 1   
    23     9    14 ar  
    24     9    15 1   
    25    10    15 1   
    26    10    16 2   
    27    11    17 1   
    28    12    26 1   
    29    13    27 1   
    30    14    28 1   
    31    15    29 1   
@<TRIPOS>SUBSTRUCTURE
     1 WLV         1 TEMP              0 ****  ****    0 ROOT
