@<TRIPOS>MOLECULE
WLW
  110   118     1     0     0
SMALL
abcg2


@<TRIPOS>ATOM
      1 N1          11.1000     8.4480    28.1580 n3         1 WLW      -0.745600
      2 N3           8.4410     4.6410    32.8400 n3         1 WLW      -0.716600
      3 C4          23.3680     9.9710    22.2920 ca         1 WLW      -0.164000
      4 C5          22.2400    10.4290    22.9550 ca         1 WLW      -0.041000
      5 C6          22.3320    11.0970    24.1720 cp         1 WLW      -0.158500
      6 C7          21.0910    11.5940    24.8070 cp         1 WLW       0.180500
      7 C8          19.9450    13.2600    25.8080 ca         1 WLW       0.102900
      8 C10         18.9140    11.1990    25.3470 ca         1 WLW       0.103300
      9 C13         15.3940     8.7290    25.7620 ca         1 WLW      -0.200000
     10 C15         13.3250     8.5910    27.0140 ca         1 WLW      -0.116300
     11 C17         10.6210     7.9430    29.4330 c3         1 WLW       0.184800
     12 C20          9.3070     5.7900    33.0090 c6         1 WLW       0.162300
     13 C21          7.6780     4.3700    34.0360 c3         1 WLW       0.154100
     14 C22          7.5810     4.8330    31.6900 c6         1 WLW       0.162300
     15 C24         10.0360     8.7000    27.2020 c3         1 WLW       0.232100
     16 C26         10.3610    11.1210    26.7400 ca         1 WLW      -0.097000
     17 C28         10.9940    11.9910    24.5910 ca         1 WLW      -0.015800
     18 C46          6.5140    11.9590    21.9500 ca         1 WLW       0.160000
     19 C45          7.3800    12.1810    20.8960 ca         1 WLW      -0.155500
     20 C44          8.6350    12.7030    21.1680 ca         1 WLW      -0.072500
     21 C47          6.8610    12.2440    23.2570 ca         1 WLW      -0.155500
     22 C48          8.1160    12.7700    23.5110 ca         1 WLW      -0.072500
     23 C43          9.0230    13.0010    22.4750 ca         1 WLW      -0.017800
     24 C33         10.3490    13.5550    22.7610 cc         1 WLW      -0.055600
     25 S           10.9550    14.8630    21.7820 ss         1 WLW      -0.146900
     26 C34         12.4390    14.8850    22.6620 ca         1 WLW       0.172300
     27 C42         12.4360    13.9380    23.6860 ca         1 WLW      -0.213800
     28 C32         11.2340    13.1590    23.7190 cd         1 WLW       0.061600
     29 C27         10.6650    12.1920    25.9290 ca         1 WLW      -0.070000
     30 C29         11.0550    10.6980    24.0650 ca         1 WLW      -0.042300
     31 C30         11.4470    10.4330    22.6420 c3         1 WLW      -0.045800
     32 C31         10.7370     9.6390    24.9240 ca         1 WLW       0.132000
     33 CL          10.8010     8.0260    24.2670 cl         1 WLW      -0.238000
     34 C25         10.3830     9.8160    26.2530 ca         1 WLW      -0.073300
     35 C18          9.9820     6.5510    29.3930 c3         1 WLW       0.127800
     36 N2           9.2560     6.2410    30.6100 n3         1 WLW      -0.719600
     37 C23          8.4020     5.0820    30.4400 c6         1 WLW       0.165300
     38 C19         10.1240     6.0440    31.7560 c6         1 WLW       0.165300
     39 C16         12.2350     7.7290    27.6150 c3         1 WLW       0.241100
     40 C36         13.6090    13.9270    24.4750 ca         1 WLW       0.451300
     41 N5          14.6220    14.7130    24.1690 nb         1 WLW      -0.254000
     42 C35         14.4950    15.5550    23.1460 ca         1 WLW       0.185900
     43 N4          13.4420    15.7090    22.3720 nb         1 WLW      -0.218000
     44 O2          13.6820    13.1090    25.4980 os         1 WLW      -0.419300
     45 C37         14.8560    13.1820    26.3230 c3         1 WLW       0.027300
     46 C41         15.0050    14.5520    27.0260 c          1 WLW       0.721000
     47 O4          16.1610    14.7910    27.4250 o          1 WLW      -0.711000
     48 O3          13.9790    15.2340    27.1770 o          1 WLW      -0.711000
     49 C38         14.7380    12.1030    27.3950 c3         1 WLW      -0.018100
     50 C39         14.5770    10.6810    26.9340 ca         1 WLW      -0.081300
     51 C40         13.4900     9.9280    27.3570 ca         1 WLW      -0.056000
     52 C14         14.2770     8.0160    26.1830 ca         1 WLW      -0.090000
     53 C12         15.5600    10.0490    26.1620 ca         1 WLW       0.140100
     54 O1          16.6470    10.7990    25.8650 os         1 WLW      -0.339100
     55 C11         17.7920    10.2010    25.3250 c3         1 WLW       0.115300
     56 C9          18.8070    12.4740    25.8830 ca         1 WLW      -0.159000
     57 N           21.0810    12.8390    25.2760 nb         1 WLW      -0.163000
     58 N6          20.0530    10.7670    24.8170 nb         1 WLW      -0.202000
     59 C1          23.5980    11.2760    24.7570 ca         1 WLW       0.178100
     60 O           23.6350    11.8610    25.9640 os         1 WLW      -0.315100
     61 C           24.8820    12.0370    26.6050 c3         1 WLW       0.149900
     62 C3          24.6130    10.1710    22.8670 ca         1 WLW      -0.068000
     63 C2          24.7330    10.8130    24.0920 ca         1 WLW      -0.218000
     64 H4          21.2620    10.2830    22.5150 ha         1 WLW       0.128000
     65 H5          19.9330    14.2750    26.1910 h4         1 WLW       0.038100
     66 H6          16.1270     8.2370    25.1360 ha         1 WLW       0.108000
     67 H7          11.4640     7.9580    30.1280 h1         1 WLW       0.057700
     68 H8           9.8810     8.6460    29.8240 h1         1 WLW       0.057700
     69 H9           9.9860     5.6060    33.8460 h1         1 WLW       0.035950
     70 H10          8.7320     6.7000    33.2550 h1         1 WLW       0.035950
     71 H11          8.3490     4.1910    34.8770 h1         1 WLW       0.027700
     72 H12          7.0040     5.1960    34.3150 h1         1 WLW       0.027700
     73 H13          7.0680     3.4760    33.8970 h1         1 WLW       0.027700
     74 H14          6.8860     5.6780    31.8400 h1         1 WLW       0.035950
     75 H15          6.9700     3.9380    31.5460 h1         1 WLW       0.035950
     76 H16          9.1540     9.0150    27.7640 h1         1 WLW       0.038200
     77 H17          9.7410     7.8000    26.6500 h1         1 WLW       0.038200
     78 H18         10.0970    11.2860    27.7780 ha         1 WLW       0.119000
     79 H19          7.0840    11.9480    19.8820 ha         1 WLW       0.125500
     80 H20          9.3230    12.8660    20.3470 ha         1 WLW       0.125500
     81 H21          6.1590    12.0710    24.0620 ha         1 WLW       0.125500
     82 H22          8.3840    13.0180    24.5290 ha         1 WLW       0.125500
     83 H23         10.6270    13.1990    26.3220 ha         1 WLW       0.140000
     84 H24         12.2550     9.7030    22.5880 hc         1 WLW       0.048033
     85 H25         10.6100    10.0300    22.0680 hc         1 WLW       0.048033
     86 H26         11.7830    11.3370    22.1420 hc         1 WLW       0.048033
     87 H27          9.2630     6.5180    28.5700 h1         1 WLW       0.031700
     88 H28         10.7470     5.7870    29.1670 h1         1 WLW       0.031700
     89 H30          7.7250     5.2560    29.6000 h1         1 WLW       0.038200
     90 H31          8.9850     4.1750    30.2020 h1         1 WLW       0.038200
     91 H32         10.8190     5.2010    31.5930 h1         1 WLW       0.038200
     92 H33         10.7340     6.9340    31.9200 h1         1 WLW       0.038200
     93 H34         11.9310     6.9690    26.8810 h1         1 WLW       0.030700
     94 H35         12.6940     7.1660    28.4340 h1         1 WLW       0.030700
     95 H36         15.3530    16.1840    22.9350 h5         1 WLW       0.042100
     96 H37         15.7260    13.0090    25.6920 h1         1 WLW       0.062700
     97 H39         15.6390    12.1890    28.0080 hc         1 WLW       0.067200
     98 H40         13.8980    12.3500    28.0520 hc         1 WLW       0.067200
     99 H41         12.7540    10.3970    27.9980 ha         1 WLW       0.131000
    100 H42         14.1720     6.9810    25.8750 ha         1 WLW       0.096000
    101 H43         17.6310     9.8710    24.2910 h1         1 WLW       0.049200
    102 H44         18.0950     9.3180    25.9010 h1         1 WLW       0.049200
    103 H45         17.9060    12.8630    26.3340 ha         1 WLW       0.192000
    104 H46         24.6700    12.5190    27.5570 h1         1 WLW       0.037033
    105 H47         25.3820    11.0840    26.7970 h1         1 WLW       0.037033
    106 H48         25.5530    12.6790    26.0290 h1         1 WLW       0.037033
    107 H49         25.5070     9.8220    22.3670 ha         1 WLW       0.103000
    108 H50         25.7170    10.9380    24.5210 ha         1 WLW       0.111000
    109 F            5.2970    11.4580    21.6970 f          1 WLW      -0.189000
    110 H3          23.2740     9.4680    21.3390 ha         1 WLW       0.111000
@<TRIPOS>BOND
     1     1    11 1   
     2     1    15 1   
     3     1    39 1   
     4     2    12 1   
     5     2    13 1   
     6     2    14 1   
     7     3     4 ar  
     8     3    62 ar  
     9     3   110 1   
    10     4     5 ar  
    11     4    64 1   
    12     5     6 1   
    13     5    59 ar  
    14     6    57 ar  
    15     6    58 ar  
    16     7    56 ar  
    17     7    57 ar  
    18     7    65 1   
    19     8    55 1   
    20     8    56 ar  
    21     8    58 ar  
    22     9    52 ar  
    23     9    53 ar  
    24     9    66 1   
    25    10    39 1   
    26    10    51 ar  
    27    10    52 ar  
    28    11    35 1   
    29    11    67 1   
    30    11    68 1   
    31    12    38 1   
    32    12    69 1   
    33    12    70 1   
    34    13    71 1   
    35    13    72 1   
    36    13    73 1   
    37    14    37 1   
    38    14    74 1   
    39    14    75 1   
    40    15    34 1   
    41    15    76 1   
    42    15    77 1   
    43    16    29 ar  
    44    16    34 ar  
    45    16    78 1   
    46    17    28 1   
    47    17    29 ar  
    48    17    30 ar  
    49    18    19 ar  
    50    18    21 ar  
    51    18   109 1   
    52    19    20 ar  
    53    19    79 1   
    54    20    23 ar  
    55    20    80 1   
    56    21    22 ar  
    57    21    81 1   
    58    22    23 ar  
    59    22    82 1   
    60    23    24 1   
    61    24    25 1   
    62    24    28 2   
    63    25    26 1   
    64    26    27 ar  
    65    26    43 ar  
    66    27    28 1   
    67    27    40 ar  
    68    29    83 1   
    69    30    31 1   
    70    30    32 ar  
    71    31    84 1   
    72    31    85 1   
    73    31    86 1   
    74    32    33 1   
    75    32    34 ar  
    76    35    36 1   
    77    35    87 1   
    78    35    88 1   
    79    36    37 1   
    80    36    38 1   
    81    37    89 1   
    82    37    90 1   
    83    38    91 1   
    84    38    92 1   
    85    39    93 1   
    86    39    94 1   
    87    40    41 ar  
    88    40    44 1   
    89    41    42 ar  
    90    42    43 ar  
    91    42    95 1   
    92    44    45 1   
    93    45    46 1   
    94    45    49 1   
    95    45    96 1   
    96    46    47 1   
    97    46    48 1   
    98    49    50 1   
    99    49    97 1   
   100    49    98 1   
   101    50    51 ar  
   102    50    53 ar  
   103    51    99 1   
   104    52   100 1   
   105    53    54 1   
   106    54    55 1   
   107    55   101 1   
   108    55   102 1   
   109    56   103 1   
   110    59    60 1   
   111    59    63 ar  
   112    60    61 1   
   113    61   104 1   
   114    61   105 1   
   115    61   106 1   
   116    62    63 ar  
   117    62   107 1   
   118    63   108 1   
@<TRIPOS>SUBSTRUCTURE
     1 WLW         1 TEMP              0 ****  ****    0 ROOT
