@<TRIPOS>MOLECULE
WLW
  110   118     1     0     0
SMALL
No Charge or Current Charge


@<TRIPOS>ATOM
      1 N1          11.2210     8.4260    28.7960 n3         1 WLW      -0.745600
      2 N3           7.1820     4.4250    32.5690 n3         1 WLW      -0.716600
      3 C4          22.6760    10.8310    24.8460 ca         1 WLW      -0.164000
      4 C5          21.3980    10.7440    24.2710 ca         1 WLW      -0.041000
      5 C6          20.6990    11.9030    23.8370 cp         1 WLW      -0.158500
      6 C7          19.3340    11.7540    23.2190 cp         1 WLW       0.180500
      7 C8          17.7820    12.4000    21.6310 ca         1 WLW       0.102900
      8 C10         17.3230    10.6020    23.1570 ca         1 WLW       0.103300
      9 C13         14.5570     8.0070    25.3320 ca         1 WLW      -0.200000
     10 C15         13.2400     7.9000    27.3730 ca         1 WLW      -0.116300
     11 C17         10.4240     7.9190    29.9500 c3         1 WLW       0.184800
     12 C20          8.3290     5.2710    33.0180 c6         1 WLW       0.162300
     13 C21          6.3230     3.9840    33.6870 c3         1 WLW       0.154100
     14 C22          6.4170     5.1320    31.4960 c6         1 WLW       0.162300
     15 C24         10.4090     9.2380    27.8450 c3         1 WLW       0.232100
     16 C26         11.8560    11.2600    27.3880 ca         1 WLW      -0.097000
     17 C28         12.6600    11.8600    25.1560 ca         1 WLW      -0.015800
     18 C46          8.4910    12.7080    22.2260 ca         1 WLW       0.160000
     19 C45          9.4590    12.6720    21.2120 ca         1 WLW      -0.155500
     20 C44         10.8090    12.9130    21.5250 ca         1 WLW      -0.072500
     21 C47          8.8600    12.9940    23.5480 ca         1 WLW      -0.155500
     22 C48         10.2100    13.2360    23.8610 ca         1 WLW      -0.072500
     23 C43         11.1980    13.1790    22.8540 ca         1 WLW      -0.017800
     24 C33         12.6110    13.4240    23.1560 cc         1 WLW      -0.055600
     25 S           13.6190    14.5440    22.2150 ss         1 WLW      -0.146900
     26 C34         14.9280    14.2760    23.3820 ca         1 WLW       0.172300
     27 C42         14.6240    13.3940    24.4060 ca         1 WLW      -0.213800
     28 C32         13.2480    12.9060    24.2810 cd         1 WLW       0.061600
     29 C27         12.5580    12.1240    26.5360 ca         1 WLW      -0.070000
     30 C29         12.0710    10.6710    24.6410 ca         1 WLW      -0.042300
     31 C30         12.2760    10.2440    23.1820 c3         1 WLW      -0.045800
     32 C31         11.3230     9.8270    25.5000 ca         1 WLW       0.132000
     33 Cl          10.4950     8.4110    24.8200 cl         1 WLW      -0.238000
     34 C25         11.2140    10.1160    26.8810 ca         1 WLW      -0.073300
     35 C18          9.3240     6.8650    29.6080 c3         1 WLW       0.127800
     36 N2           8.4800     6.4230    30.7510 n3         1 WLW      -0.719600
     37 C23          7.3320     5.5720    30.3080 c6         1 WLW       0.165300
     38 C19          9.2440     5.7160    31.8310 c6         1 WLW       0.165300
     39 C16         12.0460     7.3650    28.1560 c3         1 WLW       0.241100
     40 C36         15.6470    13.0910    25.3350 ca         1 WLW       0.451300
     41 N5          16.8650    13.6740    25.2060 nb         1 WLW      -0.254000
     42 C35         17.0400    14.5350    24.1840 ca         1 WLW       0.185900
     43 N4          16.1270    14.8660    23.2510 nb         1 WLW      -0.218000
     44 O2          15.4220    12.1880    26.3530 os         1 WLW      -0.419300
     45 C37         16.5160    11.7090    27.1890 c3         1 WLW       0.027300
     46 C41         17.0780    12.7840    28.1830 c          1 WLW       0.721000
     47 O4          18.1520    12.5530    28.7220 o          1 WLW      -0.711000
     48 O3          16.4480    13.8170    28.3790 o          1 WLW      -0.711000
     49 C38         16.0230    10.4650    27.9730 c3         1 WLW      -0.018100
     50 C39         15.1540     9.4310    27.2330 ca         1 WLW      -0.081300
     51 C40         14.0850     8.8610    27.9540 ca         1 WLW      -0.056000
     52 C14         13.5000     7.4530    26.0680 ca         1 WLW      -0.090000
     53 C12         15.3790     9.0100    25.8960 ca         1 WLW       0.140100
     54 O1          16.3880     9.5920    25.1560 os         1 WLW      -0.339100
     55 C11         16.4330     9.4990    23.7200 c3         1 WLW       0.115300
     56 C9          16.8930    11.4190    22.0950 ca         1 WLW      -0.159000
     57 N           18.9970    12.5650    22.1900 nb         1 WLW      -0.163000
     58 N6          18.5450    10.7700    23.7070 nb         1 WLW      -0.202000
     59 C1          21.3370    13.1660    24.0270 ca         1 WLW       0.178100
     60 O           20.6400    14.3030    23.6640 os         1 WLW      -0.315100
     61 C           21.1660    15.6280    23.8500 c3         1 WLW       0.149900
     62 C3          23.2900    12.0790    25.0120 ca         1 WLW      -0.068000
     63 C2          22.6230    13.2440    24.6070 ca         1 WLW      -0.218000
     64 H4          20.9510     9.7590    24.1470 ha         1 WLW       0.128000
     65 H5          17.5200    13.0660    20.8100 h4         1 WLW       0.038100
     66 H6          14.7220     7.6490    24.3210 ha         1 WLW       0.108000
     67 H7          11.1090     7.4770    30.6850 h1         1 WLW       0.057700
     68 H8           9.9350     8.7620    30.4550 h1         1 WLW       0.057700
     69 H9           8.9420     4.7230    33.7470 h1         1 WLW       0.035950
     70 H10          7.9560     6.1730    33.5270 h1         1 WLW       0.035950
     71 H11          6.9110     3.4270    34.4290 h1         1 WLW       0.027700
     72 H12          5.8600     4.8440    34.1900 h1         1 WLW       0.027700
     73 H13          5.5230     3.3250    33.3250 h1         1 WLW       0.027700
     74 H14          5.9260     6.0260    31.9090 h1         1 WLW       0.035950
     75 H15          5.6220     4.4810    31.1050 h1         1 WLW       0.035950
     76 H16          9.7660     9.9180    28.4200 h1         1 WLW       0.038200
     77 H17          9.7210     8.5880    27.2920 h1         1 WLW       0.038200
     78 H18         11.7850    11.4940    28.4480 ha         1 WLW       0.119000
     79 H19          9.1650    12.4560    20.1890 ha         1 WLW       0.125500
     80 H20         11.5580    12.8780    20.7370 ha         1 WLW       0.125500
     81 H21          8.1030    13.0310    24.3270 ha         1 WLW       0.125500
     82 H22         10.4840    13.4730    24.8860 ha         1 WLW       0.125500
     83 H23         12.9930    13.0330    26.9450 ha         1 WLW       0.140000
     84 H24         12.6060     9.2000    23.1230 hc         1 WLW       0.048033
     85 H25         11.3460    10.3290    22.6090 hc         1 WLW       0.048033
     86 H26         13.0470    10.8290    22.6700 hc         1 WLW       0.048033
     87 H27          8.6710     7.3030    28.8410 h1         1 WLW       0.031700
     88 H28          9.8070     5.9910    29.1510 h1         1 WLW       0.031700
     89 H30          6.7160     6.1160    29.5770 h1         1 WLW       0.038200
     90 H31          7.7050     4.6690    29.8020 h1         1 WLW       0.038200
     91 H32          9.7410     4.8250    31.4190 h1         1 WLW       0.038200
     92 H33         10.0320     6.3650    32.2370 h1         1 WLW       0.038200
     93 H34         11.4200     6.7510    27.4950 h1         1 WLW       0.030700
     94 H35         12.4460     6.6930    28.9280 h1         1 WLW       0.030700
     95 H36         18.0200    14.9990    24.0960 h5         1 WLW       0.042100
     96 H37         17.3580    11.3980    26.5580 h1         1 WLW       0.062700
     97 H39         16.9030     9.9540    28.3820 hc         1 WLW       0.067200
     98 H40         15.4740    10.8360    28.8470 hc         1 WLW       0.067200
     99 H41         13.8870     9.1830    28.9740 ha         1 WLW       0.131000
    100 H42         12.8680     6.6950    25.6130 ha         1 WLW       0.096000
    101 H43         15.4260     9.6260    23.3010 h1         1 WLW       0.049200
    102 H44         16.8130     8.5190    23.4060 h1         1 WLW       0.049200
    103 H45         15.9120    11.2970    21.6430 ha         1 WLW       0.192000
    104 H46         20.4440    16.3750    23.4970 h1         1 WLW       0.037033
    105 H47         21.3640    15.8230    24.9120 h1         1 WLW       0.037033
    106 H48         22.0970    15.7610    23.2850 h1         1 WLW       0.037033
    107 H49         24.2800    12.1430    25.4590 ha         1 WLW       0.103000
    108 H50         23.1180    14.1980    24.7590 ha         1 WLW       0.111000
    109 F            7.1940    12.4760    21.9260 f          1 WLW      -0.189000
    110 H3          23.1900     9.9270    25.1630 ha         1 WLW       0.111000
@<TRIPOS>BOND
     1     1    11 1   
     2     1    15 1   
     3     1    39 1   
     4     2    12 1   
     5     2    13 1   
     6     2    14 1   
     7     3     4 ar  
     8     3    62 ar  
     9     3   110 1   
    10     4     5 ar  
    11     4    64 1   
    12     5     6 1   
    13     5    59 ar  
    14     6    57 ar  
    15     6    58 ar  
    16     7    56 ar  
    17     7    57 ar  
    18     7    65 1   
    19     8    55 1   
    20     8    56 ar  
    21     8    58 ar  
    22     9    52 ar  
    23     9    53 ar  
    24     9    66 1   
    25    10    39 1   
    26    10    51 ar  
    27    10    52 ar  
    28    11    35 1   
    29    11    67 1   
    30    11    68 1   
    31    12    38 1   
    32    12    69 1   
    33    12    70 1   
    34    13    71 1   
    35    13    72 1   
    36    13    73 1   
    37    14    37 1   
    38    14    74 1   
    39    14    75 1   
    40    15    34 1   
    41    15    76 1   
    42    15    77 1   
    43    16    29 ar  
    44    16    34 ar  
    45    16    78 1   
    46    17    28 1   
    47    17    29 ar  
    48    17    30 ar  
    49    18    19 ar  
    50    18    21 ar  
    51    18   109 1   
    52    19    20 ar  
    53    19    79 1   
    54    20    23 ar  
    55    20    80 1   
    56    21    22 ar  
    57    21    81 1   
    58    22    23 ar  
    59    22    82 1   
    60    23    24 1   
    61    24    25 1   
    62    24    28 2   
    63    25    26 1   
    64    26    27 ar  
    65    26    43 ar  
    66    27    28 1   
    67    27    40 ar  
    68    29    83 1   
    69    30    31 1   
    70    30    32 ar  
    71    31    84 1   
    72    31    85 1   
    73    31    86 1   
    74    32    33 1   
    75    32    34 ar  
    76    35    36 1   
    77    35    87 1   
    78    35    88 1   
    79    36    37 1   
    80    36    38 1   
    81    37    89 1   
    82    37    90 1   
    83    38    91 1   
    84    38    92 1   
    85    39    93 1   
    86    39    94 1   
    87    40    41 ar  
    88    40    44 1   
    89    41    42 ar  
    90    42    43 ar  
    91    42    95 1   
    92    44    45 1   
    93    45    46 1   
    94    45    49 1   
    95    45    96 1   
    96    46    47 1   
    97    46    48 1   
    98    49    50 1   
    99    49    97 1   
   100    49    98 1   
   101    50    51 ar  
   102    50    53 ar  
   103    51    99 1   
   104    52   100 1   
   105    53    54 1   
   106    54    55 1   
   107    55   101 1   
   108    55   102 1   
   109    56   103 1   
   110    59    60 1   
   111    59    63 ar  
   112    60    61 1   
   113    61   104 1   
   114    61   105 1   
   115    61   106 1   
   116    62    63 ar  
   117    62   107 1   
   118    63   108 1   
@<TRIPOS>SUBSTRUCTURE
     1 WLW         1 TEMP              0 ****  ****    0 ROOT
