@<TRIPOS>MOLECULE
WLX
   19    20     1     0     0
SMALL
abcg2


@<TRIPOS>ATOM
      1 C10         -3.1310    -5.1960   -14.6810 ca         1 WLX      -0.081000
      2 C11         -1.7650    -5.5700   -14.6890 ca         1 WLX      -0.132000
      3 N1          -0.5620    -1.1480   -16.2000 nb         1 WLX      -0.721000
      4 C2          -1.8750    -0.7810   -16.1850 ca         1 WLX       0.576900
      5 C3          -2.8850    -1.6560   -15.8200 ca         1 WLX      -0.233000
      6 C4          -2.5600    -2.9690   -15.4370 ca         1 WLX       0.035000
      7 C5          -0.2490    -2.3730   -15.8450 ca         1 WLX       0.403900
      8 C6          -1.1860    -3.3500   -15.4450 ca         1 WLX      -0.143000
      9 N7          -2.1210     0.5350   -16.5090 nv         1 WLX      -1.045900
     10 C8          -3.5240    -3.9340   -15.0440 ca         1 WLX      -0.121000
     11 C9          -0.8110    -4.6600   -15.0660 ca         1 WLX      -0.065000
     12 H18         -3.8760    -5.9240   -14.3820 ha         1 WLX       0.112000
     13 H19         -1.4830    -6.5730   -14.3990 ha         1 WLX       0.115000
     14 H12         -3.9180    -1.3310   -15.8280 ha         1 WLX       0.121000
     15 H13          0.8050    -2.6360   -15.8690 h4         1 WLX       0.018100
     16 H15         -1.3970     0.9860   -17.0480 hn         1 WLX       0.465500
     17 H14         -3.0580     0.7610   -16.8080 hn         1 WLX       0.465500
     18 H16         -4.5710    -3.6580   -15.0370 ha         1 WLX       0.116000
     19 H17          0.2390    -4.9290   -15.0800 ha         1 WLX       0.113000
@<TRIPOS>BOND
     1     1     2 ar  
     2     1    10 ar  
     3     1    12 1   
     4     2    11 ar  
     5     2    13 1   
     6     3     4 ar  
     7     3     7 ar  
     8     4     5 ar  
     9     4     9 1   
    10     5     6 ar  
    11     5    14 1   
    12     6     8 ar  
    13     6    10 ar  
    14     7     8 ar  
    15     7    15 1   
    16     8    11 ar  
    17     9    16 1   
    18     9    17 1   
    19    10    18 1   
    20    11    19 1   
@<TRIPOS>SUBSTRUCTURE
     1 WLX         1 TEMP              0 ****  ****    0 ROOT
