@<TRIPOS>MOLECULE
WLX
   19    20     1     0     0
SMALL
No Charge or Current Charge


@<TRIPOS>ATOM
      1 C10         -3.1370    -5.2140   -14.6770 ca         1 WLX      -0.081000
      2 C11         -1.7760    -5.5700   -14.7010 ca         1 WLX      -0.132000
      3 N1          -0.5950    -1.0930   -16.1990 nb         1 WLX      -0.721000
      4 C2          -1.8850    -0.7890   -16.1630 ca         1 WLX       0.576900
      5 C3          -2.9090    -1.6650   -15.7950 ca         1 WLX      -0.233000
      6 C4          -2.5610    -2.9720   -15.4260 ca         1 WLX       0.035000
      7 C5          -0.2540    -2.3540   -15.8420 ca         1 WLX       0.403900
      8 C6          -1.1990    -3.3260   -15.4500 ca         1 WLX      -0.143000
      9 N7          -2.1000     0.4750   -16.5390 nv         1 WLX      -1.045900
     10 C8          -3.5310    -3.9140   -15.0400 ca         1 WLX      -0.121000
     11 C9          -0.8040    -4.6280   -15.0860 ca         1 WLX      -0.065000
     12 H18         -3.8850    -5.9450   -14.3780 ha         1 WLX       0.112000
     13 H19         -1.4730    -6.5760   -14.4190 ha         1 WLX       0.115000
     14 H12         -3.9440    -1.3380   -15.7940 ha         1 WLX       0.121000
     15 H13          0.8090    -2.5930   -15.8740 h4         1 WLX       0.018100
     16 H15         -1.3200     0.9270   -17.0000 hn         1 WLX       0.465500
     17 H14         -3.0280     0.7220   -16.8640 hn         1 WLX       0.465500
     18 H16         -4.5840    -3.6420   -15.0210 ha         1 WLX       0.116000
     19 H17          0.2470    -4.9110   -15.1020 ha         1 WLX       0.113000
@<TRIPOS>BOND
     1     1     2 ar  
     2     1    10 ar  
     3     1    12 1   
     4     2    11 ar  
     5     2    13 1   
     6     3     4 ar  
     7     3     7 ar  
     8     4     5 ar  
     9     4     9 1   
    10     5     6 ar  
    11     5    14 1   
    12     6     8 ar  
    13     6    10 ar  
    14     7     8 ar  
    15     7    15 1   
    16     8    11 ar  
    17     9    16 1   
    18     9    17 1   
    19    10    18 1   
    20    11    19 1   
@<TRIPOS>SUBSTRUCTURE
     1 WLX         1 TEMP              0 ****  ****    0 ROOT
