@<TRIPOS>MOLECULE
WLY
   36    37     1     0     0
SMALL
No Charge or Current Charge


@<TRIPOS>ATOM
      1 C10        -31.7750    -5.7180   -18.9390 c3         1 WLY       0.093000
      2 C13        -32.6150    -8.0150   -21.8860 c5         1 WLY      -0.113400
      3 C17        -26.9740   -10.1170   -20.2710 ca         1 WLY      -0.110500
      4 C02        -27.3520    -9.8840   -21.6070 ca         1 WLY      -0.068300
      5 C03        -27.9700    -8.6660   -21.9460 ca         1 WLY      -0.110500
      6 C04        -28.2100    -7.6940   -20.9610 ca         1 WLY      -0.102000
      7 C05        -27.8360    -7.9280   -19.6230 ca         1 WLY      -0.099300
      8 C06        -28.1200    -6.8760   -18.5530 c3         1 WLY      -0.120100
      9 C07        -29.6190    -6.8260   -18.2430 c          1 WLY       0.600100
     10 C11        -32.4100    -6.3540   -20.2050 c5         1 WLY       0.143300
     11 C12        -32.1680    -7.8680   -20.4070 c5         1 WLY      -0.106400
     12 C14        -32.2040    -6.6460   -22.5090 c5         1 WLY       0.153600
     13 C16        -27.2160    -9.1460   -19.2840 ca         1 WLY      -0.102000
     14 N09        -30.3100    -5.8250   -18.8850 ns         1 WLY      -0.497900
     15 O08        -30.1680    -7.6330   -17.5060 o          1 WLY      -0.616100
     16 O15        -31.8180    -5.8050   -21.3970 os         1 WLY      -0.472000
     17 H1         -32.0450    -4.6540   -18.9130 h1         1 WLY       0.066200
     18 H2         -32.2130    -6.1860   -18.0480 h1         1 WLY       0.066200
     19 H3         -33.6980    -8.1650   -21.9630 hc         1 WLY       0.054200
     20 H4         -32.1340    -8.8630   -22.3860 hc         1 WLY       0.054200
     21 H6         -27.8470   -10.8970   -23.4670 hc         1 WLY       0.043700
     22 H7         -26.1100   -10.7830   -23.1390 hc         1 WLY       0.043700
     23 H8         -27.1080   -11.9480   -22.2520 hc         1 WLY       0.043700
     24 H9         -28.2660    -8.4720   -22.9750 ha         1 WLY       0.113000
     25 H10        -28.6930    -6.7600   -21.2400 ha         1 WLY       0.115000
     26 H11        -27.5800    -7.1200   -17.6310 hc         1 WLY       0.078200
     27 H12        -27.7860    -5.9000   -18.9240 hc         1 WLY       0.078200
     28 H13        -33.4860    -6.1280   -20.2080 h1         1 WLY       0.052700
     29 H14        -32.7570    -8.4880   -19.7210 hc         1 WLY       0.060200
     30 H15        -31.1140    -8.1380   -20.2820 hc         1 WLY       0.060200
     31 H16        -33.0400    -6.1790   -23.0480 h1         1 WLY       0.044200
     32 H17        -31.3520    -6.7400   -23.1960 h1         1 WLY       0.044200
     33 H18        -26.9240    -9.3450   -18.2560 ha         1 WLY       0.115000
     34 H19        -29.7720    -5.2220   -19.4960 hn         1 WLY       0.329500
     35 H5         -26.4940   -11.0530   -19.9960 ha         1 WLY       0.113000
     36 C01        -27.0910   -10.9360   -22.6740 c3         1 WLY      -0.048800
@<TRIPOS>BOND
     1     1    10 1   
     2     1    14 1   
     3     1    17 1   
     4     1    18 1   
     5     2    11 1   
     6     2    12 1   
     7     2    19 1   
     8     2    20 1   
     9     3     4 ar  
    10     3    13 ar  
    11     3    35 1   
    12     4     5 ar  
    13     4    36 1   
    14     5     6 ar  
    15     5    24 1   
    16     6     7 ar  
    17     6    25 1   
    18     7     8 1   
    19     7    13 ar  
    20     8     9 1   
    21     8    26 1   
    22     8    27 1   
    23     9    14 1   
    24     9    15 2   
    25    10    11 1   
    26    10    16 1   
    27    10    28 1   
    28    11    29 1   
    29    11    30 1   
    30    12    16 1   
    31    12    31 1   
    32    12    32 1   
    33    13    33 1   
    34    14    34 1   
    35    21    36 1   
    36    22    36 1   
    37    23    36 1   
@<TRIPOS>SUBSTRUCTURE
     1 WLY         1 TEMP              0 ****  ****    0 ROOT
