@<TRIPOS>MOLECULE
WLY
   36    37     1     0     0
SMALL
bcc


@<TRIPOS>ATOM
      1 C10        -31.5830    -5.8680   -19.3250 c3         1 WLY       0.093000
      2 C13        -32.8220    -8.9190   -21.0690 c5         1 WLY      -0.113400
      3 C17        -28.0580    -9.5130   -21.3680 ca         1 WLY      -0.128500
      4 C02        -27.2490    -8.7290   -22.1920 ca         1 WLY      -0.068300
      5 C03        -26.7690    -7.5280   -21.6790 ca         1 WLY      -0.128500
      6 C04        -27.0930    -7.1150   -20.3920 ca         1 WLY      -0.120000
      7 C05        -27.9060    -7.8950   -19.5760 ca         1 WLY      -0.099300
      8 C06        -28.3000    -7.4440   -18.1990 c3         1 WLY      -0.120100
      9 C07        -29.7020    -6.8590   -18.0720 c          1 WLY       0.667100
     10 C11        -32.4630    -6.7350   -20.2120 c5         1 WLY       0.120100
     11 C12        -32.6360    -8.1780   -19.7500 c5         1 WLY      -0.106400
     12 C14        -31.8790    -8.1490   -21.9820 c5         1 WLY       0.130400
     13 C16        -28.3810    -9.1030   -20.0850 ca         1 WLY      -0.120000
     14 N09        -30.2470    -6.3960   -19.2070 ns         1 WLY      -0.564900
     15 O08        -30.2540    -6.8000   -16.9820 o          1 WLY      -0.616100
     16 O15        -31.8900    -6.8060   -21.5150 os         1 WLY      -0.425600
     17 H1         -31.5390    -4.8550   -19.7320 h1         1 WLY       0.066200
     18 H2         -32.0270    -5.7940   -18.3330 h1         1 WLY       0.066200
     19 H3         -33.8550    -8.8370   -21.4160 hc         1 WLY       0.054200
     20 H4         -32.5710    -9.9770   -21.0090 hc         1 WLY       0.054200
     21 H6         -27.7230    -8.8590   -24.2820 hc         1 WLY       0.043700
     22 H7         -26.0050    -8.7010   -23.9500 hc         1 WLY       0.043700
     23 H8         -26.8250   -10.2390   -23.6720 hc         1 WLY       0.043700
     24 H9         -26.1290    -6.9030   -22.2900 ha         1 WLY       0.131000
     25 H10        -26.7060    -6.1730   -20.0220 ha         1 WLY       0.133000
     26 H11        -28.2420    -8.2730   -17.4920 hc         1 WLY       0.078200
     27 H12        -27.6060    -6.6810   -17.8340 hc         1 WLY       0.078200
     28 H13        -33.4450    -6.2470   -20.2780 h1         1 WLY       0.052700
     29 H14        -33.4740    -8.2880   -19.0620 hc         1 WLY       0.060200
     30 H15        -31.7360    -8.5380   -19.2440 hc         1 WLY       0.060200
     31 H16        -32.1870    -8.1690   -23.0300 h1         1 WLY       0.044200
     32 H17        -30.8630    -8.5580   -21.9240 h1         1 WLY       0.044200
     33 H18        -29.0130    -9.7330   -19.4690 ha         1 WLY       0.133000
     34 H19        -29.7280    -6.5020   -20.0650 hn         1 WLY       0.329500
     35 H5         -28.4410   -10.4580   -21.7350 ha         1 WLY       0.131000
     36 C01        -26.9280    -9.1560   -23.5940 c3         1 WLY      -0.048800
@<TRIPOS>BOND
     1     1    10 1   
     2     1    14 1   
     3     1    17 1   
     4     1    18 1   
     5     2    11 1   
     6     2    12 1   
     7     2    19 1   
     8     2    20 1   
     9     3     4 ar  
    10     3    13 ar  
    11     3    35 1   
    12     4     5 ar  
    13     4    36 1   
    14     5     6 ar  
    15     5    24 1   
    16     6     7 ar  
    17     6    25 1   
    18     7     8 1   
    19     7    13 ar  
    20     8     9 1   
    21     8    26 1   
    22     8    27 1   
    23     9    14 1   
    24     9    15 2   
    25    10    11 1   
    26    10    16 1   
    27    10    28 1   
    28    11    29 1   
    29    11    30 1   
    30    12    16 1   
    31    12    31 1   
    32    12    32 1   
    33    13    33 1   
    34    14    34 1   
    35    21    36 1   
    36    22    36 1   
    37    23    36 1   
@<TRIPOS>SUBSTRUCTURE
     1 WLY         1 TEMP              0 ****  ****    0 ROOT
