@<TRIPOS>MOLECULE
WM0
   71    75     1     0     0
SMALL
No Charge or Current Charge


@<TRIPOS>ATOM
      1 N1         -37.3560   -30.4690   -69.0390 n3         1 WM0      -0.723600
      2 N3         -43.3600   -31.6150   -64.5990 no         1 WM0       0.683200
      3 C4         -38.7460   -30.2950   -68.5220 c3         1 WM0       0.226100
      4 C5         -38.9810   -30.8560   -67.1150 ca         1 WM0      -0.119300
      5 C6         -39.4420   -32.1790   -66.9510 ca         1 WM0      -0.099000
      6 C7         -39.6700   -32.7020   -65.6670 ca         1 WM0      -0.099000
      7 C8         -39.4470   -31.9100   -64.5260 ca         1 WM0      -0.118300
      8 C10        -41.7460   -31.0340   -62.7350 ca         1 WM0       0.395000
      9 C13        -42.8650   -28.4240   -62.5650 ca         1 WM0       0.239000
     10 C15        -44.2700   -26.0970   -64.6130 c6         1 WM0       0.122600
     11 C17        -42.5820   -25.8950   -62.3110 c5         1 WM0       0.163500
     12 C20        -41.8060   -28.8140   -61.7220 ca         1 WM0      -0.055000
     13 C21        -41.2540   -30.1030   -61.8100 ca         1 WM0      -0.182000
     14 C22        -39.0000   -30.5840   -64.6870 ca         1 WM0      -0.099000
     15 C24        -36.9860   -31.9180   -69.1440 c6         1 WM0       0.167800
     16 C26        -34.5260   -31.3830   -69.0180 c6         1 WM0       0.131300
     17 C1         -34.8700   -29.8710   -68.9770 c6         1 WM0       0.138300
     18 O1         -33.8200   -29.1700   -68.2650 oh         1 WM0      -0.739000
     19 C2         -36.2940   -29.6420   -68.3380 c6         1 WM0       0.173500
     20 N2         -41.1360   -32.2810   -62.8020 nu         1 WM0      -0.957200
     21 O2         -36.6200   -27.4700   -69.5910 oh         1 WM0      -0.654000
     22 C3         -36.6080   -28.0950   -68.2940 c3         1 WM0       0.156600
     23 O3         -43.8750   -31.1310   -65.6140 o          1 WM0      -0.428500
     24 N4         -43.4070   -27.1130   -62.4680 nh         1 WM0      -0.782400
     25 O4         -43.3800   -32.8260   -64.3370 o          1 WM0      -0.428500
     26 O5         -43.2770   -25.0320   -64.5520 os         1 WM0      -0.455000
     27 O6         -35.2650   -33.5390   -69.8930 oh         1 WM0      -0.724000
     28 O7         -33.2220   -31.5850   -69.5970 oh         1 WM0      -0.672000
     29 C9         -39.7180   -32.4680   -63.1350 c3         1 WM0       0.275100
     30 C11        -42.8160   -30.6750   -63.5800 ca         1 WM0      -0.251200
     31 C12        -43.3640   -29.3690   -63.4870 ca         1 WM0      -0.080000
     32 C14        -44.6150   -26.6400   -63.1820 c5         1 WM0       0.163500
     33 C16        -42.1310   -25.3240   -63.6990 c6         1 WM0       0.122600
     34 C19        -45.0190   -25.5090   -62.1870 c5         1 WM0      -0.066900
     35 C23        -38.7730   -30.0600   -65.9710 ca         1 WM0      -0.099000
     36 C25        -35.6080   -32.1420   -69.8230 c6         1 WM0       0.176300
     37 H2         -39.0450   -29.2390   -68.5400 h1         1 WM0       0.065200
     38 H3         -39.4450   -30.7980   -69.2040 h1         1 WM0       0.065200
     39 H4         -39.6240   -32.8050   -67.8220 ha         1 WM0       0.113500
     40 H5         -40.0280   -33.7240   -65.5610 ha         1 WM0       0.117000
     41 H7         -43.8760   -26.9140   -65.2340 h1         1 WM0       0.056200
     42 H8         -45.1760   -25.7110   -65.0990 h1         1 WM0       0.056200
     43 H9         -41.6980   -26.0350   -61.6740 h1         1 WM0       0.077700
     44 H10        -41.4130   -28.1210   -60.9850 ha         1 WM0       0.118000
     45 H11        -40.4370   -30.3790   -61.1500 ha         1 WM0       0.127000
     46 H12        -38.8380   -29.9540   -63.8150 ha         1 WM0       0.117000
     47 H13        -36.9560   -32.3780   -68.1440 h1         1 WM0       0.052700
     48 H14        -37.7480   -32.4600   -69.7230 h1         1 WM0       0.052700
     49 H15        -34.5330   -31.7610   -67.9840 h1         1 WM0       0.053700
     50 H16        -34.9140   -29.5150   -70.0180 h1         1 WM0       0.074700
     51 H17        -33.8940   -28.2180   -68.5130 ho         1 WM0       0.510000
     52 H18        -36.2330   -29.9750   -67.2910 h1         1 WM0       0.043700
     53 H19        -41.7500   -32.9660   -63.2540 hn         1 WM0       0.536000
     54 H20        -36.9530   -26.5540   -69.4660 ho         1 WM0       0.438000
     55 H21        -37.5700   -27.9320   -67.7960 h1         1 WM0       0.025200
     56 H22        -35.8580   -27.6090   -67.6580 h1         1 WM0       0.025200
     57 H24        -34.2800   -33.5380   -69.9780 ho         1 WM0       0.522000
     58 H25        -32.6830   -30.8380   -69.2450 ho         1 WM0       0.460000
     59 H26        -39.4580   -33.5360   -63.1120 h1         1 WM0       0.062700
     60 H27        -39.0770   -31.9600   -62.4000 h1         1 WM0       0.062700
     61 H28        -44.1820   -29.0900   -64.1440 ha         1 WM0       0.147000
     62 H29        -45.4060   -27.4000   -63.2540 h1         1 WM0       0.077700
     63 H30        -41.5480   -24.4030   -63.5580 h1         1 WM0       0.056200
     64 H31        -41.4870   -26.0580   -64.2050 h1         1 WM0       0.056200
     65 H34        -45.5870   -24.7110   -62.6770 hc         1 WM0       0.055450
     66 H35        -45.6540   -25.9050   -61.3860 hc         1 WM0       0.055450
     67 H36        -38.4380   -29.0320   -66.0690 ha         1 WM0       0.113500
     68 H37        -35.6530   -31.7170   -70.8370 h1         1 WM0       0.059700
     69 C18        -43.6490   -25.0030   -61.6030 c5         1 WM0      -0.066900
     70 H32        -43.6170   -25.1470   -60.5180 hc         1 WM0       0.055450
     71 H33        -43.4820   -23.9360   -61.7870 hc         1 WM0       0.055450
@<TRIPOS>BOND
     1     1     3 1   
     2     1    15 1   
     3     1    19 1   
     4     2    23 1   
     5     2    25 1   
     6     2    30 1   
     7     3     4 1   
     8     3    37 1   
     9     3    38 1   
    10     4     5 ar  
    11     4    35 ar  
    12     5     6 ar  
    13     5    39 1   
    14     6     7 ar  
    15     6    40 1   
    16     7    14 ar  
    17     7    29 1   
    18     8    13 ar  
    19     8    20 1   
    20     8    30 ar  
    21     9    12 ar  
    22     9    24 1   
    23     9    31 ar  
    24    10    26 1   
    25    10    32 1   
    26    10    41 1   
    27    10    42 1   
    28    11    24 1   
    29    11    33 1   
    30    11    43 1   
    31    11    69 1   
    32    12    13 ar  
    33    12    44 1   
    34    13    45 1   
    35    14    35 ar  
    36    14    46 1   
    37    15    36 1   
    38    15    47 1   
    39    15    48 1   
    40    16    17 1   
    41    16    28 1   
    42    16    36 1   
    43    16    49 1   
    44    17    18 1   
    45    17    19 1   
    46    17    50 1   
    47    18    51 1   
    48    19    22 1   
    49    19    52 1   
    50    20    29 1   
    51    20    53 1   
    52    21    22 1   
    53    21    54 1   
    54    22    55 1   
    55    22    56 1   
    56    24    32 1   
    57    26    33 1   
    58    27    36 1   
    59    27    57 1   
    60    28    58 1   
    61    29    59 1   
    62    29    60 1   
    63    30    31 ar  
    64    31    61 1   
    65    32    34 1   
    66    32    62 1   
    67    33    63 1   
    68    33    64 1   
    69    34    65 1   
    70    34    66 1   
    71    34    69 1   
    72    35    67 1   
    73    36    68 1   
    74    69    70 1   
    75    69    71 1   
@<TRIPOS>SUBSTRUCTURE
     1 WM0         1 TEMP              0 ****  ****    0 ROOT
