@<TRIPOS>MOLECULE
WM0
   71    75     1     0     0
SMALL
abcg2


@<TRIPOS>ATOM
      1 N1         -36.4400   -30.0840   -68.9470 n3         1 WM0      -0.723600
      2 N3         -43.9440   -31.9000   -63.3440 no         1 WM0       0.683200
      3 C4         -37.4880   -29.2870   -68.2900 c3         1 WM0       0.226100
      4 C5         -38.0360   -29.8620   -66.9980 ca         1 WM0      -0.119300
      5 C6         -39.2560   -30.5400   -67.0000 ca         1 WM0      -0.099000
      6 C7         -39.7650   -31.1170   -65.8430 ca         1 WM0      -0.099000
      7 C8         -39.0600   -31.0360   -64.6440 ca         1 WM0      -0.118300
      8 C10        -41.7990   -30.6760   -63.0620 ca         1 WM0       0.395000
      9 C13        -43.4000   -28.3320   -62.5380 ca         1 WM0       0.239000
     10 C15        -45.7880   -26.9030   -63.9600 c6         1 WM0       0.122600
     11 C17        -43.6650   -25.8360   -62.4800 c5         1 WM0       0.163500
     12 C20        -41.9820   -28.2910   -62.5630 ca         1 WM0      -0.055000
     13 C21        -41.2240   -29.4040   -62.8140 ca         1 WM0      -0.182000
     14 C22        -37.8500   -30.3470   -64.6290 ca         1 WM0      -0.099000
     15 C24        -36.9050   -31.4330   -69.2460 c6         1 WM0       0.167800
     16 C26        -34.5750   -32.1680   -69.6300 c6         1 WM0       0.131300
     17 C1         -34.1140   -30.7720   -69.2570 c6         1 WM0       0.138300
     18 O1         -32.8350   -30.9270   -68.6320 oh         1 WM0      -0.739000
     19 C2         -35.1150   -30.0740   -68.3170 c6         1 WM0       0.173500
     20 N2         -41.0130   -31.7560   -63.2680 nu         1 WM0      -0.957200
     21 O2         -34.5930   -27.8700   -69.1670 oh         1 WM0      -0.654000
     22 C3         -34.6190   -28.6730   -67.9850 c3         1 WM0       0.156600
     23 O3         -45.1810   -31.8750   -63.3560 o          1 WM0      -0.428500
     24 N4         -44.1340   -27.2050   -62.1880 nh         1 WM0      -0.782400
     25 O4         -43.3230   -32.9560   -63.5810 o          1 WM0      -0.428500
     26 O5         -45.1640   -25.6900   -64.3970 os         1 WM0      -0.455000
     27 O6         -36.4740   -33.4420   -70.4500 oh         1 WM0      -0.724000
     28 O7         -33.7030   -32.7680   -70.5870 oh         1 WM0      -0.672000
     29 C9         -39.5700   -31.7070   -63.3830 c3         1 WM0       0.275100
     30 C11        -43.2220   -30.7060   -63.0610 ca         1 WM0      -0.251200
     31 C12        -43.9890   -29.5530   -62.8070 ca         1 WM0      -0.080000
     32 C14        -45.5790   -27.1080   -62.4580 c5         1 WM0       0.163500
     33 C16        -43.7980   -25.5850   -63.9830 c6         1 WM0       0.122600
     34 C19        -45.9570   -25.8480   -61.6620 c5         1 WM0      -0.066900
     35 C23        -37.3460   -29.7670   -65.7880 ca         1 WM0      -0.099000
     36 C25        -35.9680   -32.1270   -70.2180 c6         1 WM0       0.176300
     37 H2         -37.1070   -28.2810   -68.1280 h1         1 WM0       0.065200
     38 H3         -38.3090   -29.2050   -69.0040 h1         1 WM0       0.065200
     39 H4         -39.8170   -30.6160   -67.9240 ha         1 WM0       0.113500
     40 H5         -40.7190   -31.6290   -65.8710 ha         1 WM0       0.117000
     41 H7         -45.3780   -27.7520   -64.5180 h1         1 WM0       0.056200
     42 H8         -46.8470   -26.8050   -64.1970 h1         1 WM0       0.056200
     43 H9         -42.6370   -25.6820   -62.1610 h1         1 WM0       0.077700
     44 H10        -41.4680   -27.3600   -62.3750 ha         1 WM0       0.118000
     45 H11        -40.1500   -29.3050   -62.8230 ha         1 WM0       0.127000
     46 H12        -37.3010   -30.2520   -63.7000 ha         1 WM0       0.117000
     47 H13        -36.9950   -32.0580   -68.3430 h1         1 WM0       0.052700
     48 H14        -37.8980   -31.3670   -69.6940 h1         1 WM0       0.052700
     49 H15        -34.6010   -32.7800   -68.7180 h1         1 WM0       0.053700
     50 H16        -34.0120   -30.1770   -70.1680 h1         1 WM0       0.074700
     51 H17        -32.2860   -30.1640   -68.8420 ho         1 WM0       0.510000
     52 H18        -35.1120   -30.6360   -67.3670 h1         1 WM0       0.043700
     53 H19        -41.4910   -32.6140   -63.4910 hn         1 WM0       0.536000
     54 H20        -34.1860   -27.0240   -68.9440 ho         1 WM0       0.438000
     55 H21        -35.2500   -28.2070   -67.2250 h1         1 WM0       0.025200
     56 H22        -33.6170   -28.7660   -67.5580 h1         1 WM0       0.025200
     57 H24        -35.8220   -33.9130   -70.9840 ho         1 WM0       0.522000
     58 H25        -32.8100   -32.7370   -70.2170 ho         1 WM0       0.460000
     59 H26        -39.2290   -32.7430   -63.3600 h1         1 WM0       0.062700
     60 H27        -39.1350   -31.2170   -62.5080 h1         1 WM0       0.062700
     61 H28        -45.0590   -29.6660   -62.8300 ha         1 WM0       0.147000
     62 H29        -46.1110   -27.9950   -62.1160 h1         1 WM0       0.077700
     63 H30        -43.4780   -24.5750   -64.2400 h1         1 WM0       0.056200
     64 H31        -43.1820   -26.3040   -64.5380 h1         1 WM0       0.056200
     65 H34        -46.8050   -25.3350   -62.1150 hc         1 WM0       0.055450
     66 H35        -46.2310   -26.1220   -60.6440 hc         1 WM0       0.055450
     67 H36        -36.4110   -29.2250   -65.7360 ha         1 WM0       0.113500
     68 H37        -35.9380   -31.5670   -71.1600 h1         1 WM0       0.059700
     69 C18        -44.6660   -24.9910   -61.6780 c5         1 WM0      -0.066900
     70 H32        -44.2910   -24.8310   -60.6680 hc         1 WM0       0.055450
     71 H33        -44.8190   -24.0160   -62.1400 hc         1 WM0       0.055450
@<TRIPOS>BOND
     1     1     3 1   
     2     1    15 1   
     3     1    19 1   
     4     2    23 1   
     5     2    25 1   
     6     2    30 1   
     7     3     4 1   
     8     3    37 1   
     9     3    38 1   
    10     4     5 ar  
    11     4    35 ar  
    12     5     6 ar  
    13     5    39 1   
    14     6     7 ar  
    15     6    40 1   
    16     7    14 ar  
    17     7    29 1   
    18     8    13 ar  
    19     8    20 1   
    20     8    30 ar  
    21     9    12 ar  
    22     9    24 1   
    23     9    31 ar  
    24    10    26 1   
    25    10    32 1   
    26    10    41 1   
    27    10    42 1   
    28    11    24 1   
    29    11    33 1   
    30    11    43 1   
    31    11    69 1   
    32    12    13 ar  
    33    12    44 1   
    34    13    45 1   
    35    14    35 ar  
    36    14    46 1   
    37    15    36 1   
    38    15    47 1   
    39    15    48 1   
    40    16    17 1   
    41    16    28 1   
    42    16    36 1   
    43    16    49 1   
    44    17    18 1   
    45    17    19 1   
    46    17    50 1   
    47    18    51 1   
    48    19    22 1   
    49    19    52 1   
    50    20    29 1   
    51    20    53 1   
    52    21    22 1   
    53    21    54 1   
    54    22    55 1   
    55    22    56 1   
    56    24    32 1   
    57    26    33 1   
    58    27    36 1   
    59    27    57 1   
    60    28    58 1   
    61    29    59 1   
    62    29    60 1   
    63    30    31 ar  
    64    31    61 1   
    65    32    34 1   
    66    32    62 1   
    67    33    63 1   
    68    33    64 1   
    69    34    65 1   
    70    34    66 1   
    71    34    69 1   
    72    35    67 1   
    73    36    68 1   
    74    69    70 1   
    75    69    71 1   
@<TRIPOS>SUBSTRUCTURE
     1 WM0         1 TEMP              0 ****  ****    0 ROOT
