@<TRIPOS>MOLECULE
WM1
   15    15     1     0     0
SMALL
abcg2


@<TRIPOS>ATOM
      1 CAD         -0.5190    -1.2660    -0.0070 ca         1 WM1      -0.104000
      2 CAG         -1.9040    -1.1920    -0.0020 ca         1 WM1      -0.083000
      3 CAH         -2.5080     0.0550     0.0190 ca         1 WM1      -0.147000
      4 CAI         -1.6960     1.1820     0.0350 ca         1 WM1       0.335900
      5 NAF         -0.3740     1.1160     0.0320 nb         1 WM1      -0.678000
      6 CAE          0.2020    -0.0810     0.0100 ca         1 WM1       0.284500
      7 CAB          1.7060    -0.1260     0.0040 c          1 WM1       0.510600
      8 OAC          2.3020    -1.1940    -0.0320 o          1 WM1      -0.610100
      9 NAA          2.3000     1.0680     0.0430 nt         1 WM1      -0.586000
     10 H1          -0.0110    -2.2200    -0.0230 ha         1 WM1       0.150000
     11 H2          -2.5020    -2.0940    -0.0140 ha         1 WM1       0.124000
     12 H3          -3.5840     0.1590     0.0230 ha         1 WM1       0.126000
     13 H4          -2.1330     2.1730     0.0530 h4         1 WM1       0.021100
     14 H5           1.7500     1.9110     0.0650 hn         1 WM1       0.327000
     15 H6           3.3030     1.1420     0.0350 hn         1 WM1       0.327000
@<TRIPOS>BOND
     1     1     2 ar  
     2     1     6 ar  
     3     1    10 1   
     4     2     3 ar  
     5     2    11 1   
     6     3     4 ar  
     7     3    12 1   
     8     4     5 ar  
     9     4    13 1   
    10     5     6 ar  
    11     6     7 1   
    12     7     8 2   
    13     7     9 1   
    14     9    14 1   
    15     9    15 1   
@<TRIPOS>SUBSTRUCTURE
     1 WM1         1 TEMP              0 ****  ****    0 ROOT
