@<TRIPOS>MOLECULE
WM1
   15    15     1     0     0
SMALL
No Charge or Current Charge


@<TRIPOS>ATOM
      1 CAD         -0.5400    -1.2610    -0.0090 ca         1 WM1      -0.104000
      2 CAG         -1.9440    -1.2170    -0.0060 ca         1 WM1      -0.083000
      3 CAH         -2.5690     0.0400     0.0190 ca         1 WM1      -0.147000
      4 CAI         -1.7750     1.1980     0.0410 ca         1 WM1       0.335900
      5 NAF         -0.4210     1.1630     0.0380 nb         1 WM1      -0.678000
      6 CAE          0.2010    -0.0570     0.0140 ca         1 WM1       0.284500
      7 CAB          1.7370    -0.1120     0.0100 c          1 WM1       0.510600
      8 OAC          2.3810    -1.1530    -0.0110 o          1 WM1      -0.610100
      9 NAA          2.4080     1.0690     0.0330 nt         1 WM1      -0.586000
     10 H1          -0.0260    -2.2190    -0.0280 ha         1 WM1       0.150000
     11 H2          -2.5320    -2.1330    -0.0230 ha         1 WM1       0.124000
     12 H3          -3.6520     0.1230     0.0220 ha         1 WM1       0.126000
     13 H4          -2.2350     2.1850     0.0610 h4         1 WM1       0.021100
     14 H5           1.8810     1.9310     0.0500 hn         1 WM1       0.327000
     15 H6           3.4170     1.0760     0.0310 hn         1 WM1       0.327000
@<TRIPOS>BOND
     1     1     2 ar  
     2     1     6 ar  
     3     1    10 1   
     4     2     3 ar  
     5     2    11 1   
     6     3     4 ar  
     7     3    12 1   
     8     4     5 ar  
     9     4    13 1   
    10     5     6 ar  
    11     6     7 1   
    12     7     8 2   
    13     7     9 1   
    14     9    14 1   
    15     9    15 1   
@<TRIPOS>SUBSTRUCTURE
     1 WM1         1 TEMP              0 ****  ****    0 ROOT
