@<TRIPOS>MOLECULE
WM2
   22    22     1     0     0
SMALL
abcg2


@<TRIPOS>ATOM
      1 O9           2.0470    -0.5110     1.2130 o          1 WM2      -0.607100
      2 C7           1.7320     0.0420     0.1670 c          1 WM2       0.604100
      3 N8           2.6300     0.6330    -0.6360 nt         1 WM2      -0.610000
      4 C1           0.2890     0.1330    -0.2900 c6         1 WM2      -0.141700
      5 C6          -0.4290    -1.2080    -0.1390 c6         1 WM2      -0.066400
      6 C5          -1.8950    -1.0990    -0.5450 c6         1 WM2      -0.073900
      7 C4          -2.6140    -0.0120     0.2470 c6         1 WM2      -0.075400
      8 C3          -1.8990     1.3280     0.1120 c6         1 WM2      -0.073900
      9 C2          -0.4320     1.2230     0.5160 c6         1 WM2      -0.066400
     10 H1           3.6030     0.6700    -0.3770 hn         1 WM2       0.311500
     11 H2           2.3600     1.0970    -1.4850 hn         1 WM2       0.311500
     12 H3           0.2620     0.4220    -1.3470 hc         1 WM2       0.046700
     13 H4           0.0720    -1.9710    -0.7410 hc         1 WM2       0.051200
     14 H5          -0.3620    -1.5350     0.9020 hc         1 WM2       0.051200
     15 H6          -1.9620    -0.8710    -1.6150 hc         1 WM2       0.038700
     16 H7          -2.3890    -2.0630    -0.4020 hc         1 WM2       0.038700
     17 H8          -3.6500     0.0790    -0.0880 hc         1 WM2       0.041200
     18 H9          -2.6540    -0.2990     1.3040 hc         1 WM2       0.041200
     19 H10         -1.9640     1.6690    -0.9270 hc         1 WM2       0.038700
     20 H11         -2.3940     2.0880     0.7200 hc         1 WM2       0.038700
     21 H12         -0.3620     0.9820     1.5820 hc         1 WM2       0.051200
     22 H13          0.0660     2.1850     0.3750 hc         1 WM2       0.051200
@<TRIPOS>BOND
     1     1     2 2   
     2     2     3 1   
     3     2     4 1   
     4     3    10 1   
     5     3    11 1   
     6     4     5 1   
     7     4     9 1   
     8     4    12 1   
     9     5     6 1   
    10     5    13 1   
    11     5    14 1   
    12     6     7 1   
    13     6    15 1   
    14     6    16 1   
    15     7     8 1   
    16     7    17 1   
    17     7    18 1   
    18     8     9 1   
    19     8    19 1   
    20     8    20 1   
    21     9    21 1   
    22     9    22 1   
@<TRIPOS>SUBSTRUCTURE
     1 WM2         1 TEMP              0 ****  ****    0 ROOT
