@<TRIPOS>MOLECULE
WM2
   22    22     1     0     0
SMALL
No Charge or Current Charge


@<TRIPOS>ATOM
      1 O9           2.1860    -0.1930     1.3240 o          1 WM2      -0.607100
      2 C7           1.7940     0.1340     0.2160 c          1 WM2       0.604100
      3 N8           2.6800     0.4650    -0.7480 nt         1 WM2      -0.610000
      4 C1           0.2990     0.1940    -0.1620 c6         1 WM2      -0.141700
      5 C6          -0.3930    -1.1960    -0.1470 c6         1 WM2      -0.066400
      6 C5          -1.8700    -1.0920    -0.6050 c6         1 WM2      -0.073900
      7 C4          -2.6460    -0.0380     0.2250 c6         1 WM2      -0.075400
      8 C3          -1.9630     1.3510     0.1510 c6         1 WM2      -0.073900
      9 C2          -0.4880     1.2820     0.6200 c6         1 WM2      -0.066400
     10 H1           3.6670     0.4380    -0.5410 hn         1 WM2       0.311500
     11 H2           2.3540     0.7350    -1.6640 hn         1 WM2       0.311500
     12 H3           0.2810     0.5180    -1.2120 hc         1 WM2       0.046700
     13 H4           0.1490    -1.8960    -0.7990 hc         1 WM2       0.051200
     14 H5          -0.3520    -1.6190     0.8670 hc         1 WM2       0.051200
     15 H6          -1.9090    -0.8240    -1.6700 hc         1 WM2       0.038700
     16 H7          -2.3580    -2.0720    -0.5130 hc         1 WM2       0.038700
     17 H8          -3.6790     0.0360    -0.1420 hc         1 WM2       0.041200
     18 H9          -2.7100    -0.3650     1.2720 hc         1 WM2       0.041200
     19 H10         -2.0060     1.7290    -0.8800 hc         1 WM2       0.038700
     20 H11         -2.5160     2.0720     0.7700 hc         1 WM2       0.038700
     21 H12         -0.4540     1.0600     1.6960 hc         1 WM2       0.051200
     22 H13         -0.0090     2.2620     0.4880 hc         1 WM2       0.051200
@<TRIPOS>BOND
     1     1     2 2   
     2     2     3 1   
     3     2     4 1   
     4     3    10 1   
     5     3    11 1   
     6     4     5 1   
     7     4     9 1   
     8     4    12 1   
     9     5     6 1   
    10     5    13 1   
    11     5    14 1   
    12     6     7 1   
    13     6    15 1   
    14     6    16 1   
    15     7     8 1   
    16     7    17 1   
    17     7    18 1   
    18     8     9 1   
    19     8    19 1   
    20     8    20 1   
    21     9    21 1   
    22     9    22 1   
@<TRIPOS>SUBSTRUCTURE
     1 WM2         1 TEMP              0 ****  ****    0 ROOT
