@<TRIPOS>MOLECULE
WM3
   19    19     1     0     0
SMALL
abcg2


@<TRIPOS>ATOM
      1 OAB         -1.5420    -1.8390    -0.2490 o          1 WM3      -0.525000
      2 SAD         -1.2540    -0.4250    -0.4300 sy         1 WM3       1.161600
      3 OAE         -1.6370     0.2460    -1.6590 o          1 WM3      -0.525000
      4 NAC         -2.0330     0.3390     0.8200 n7         1 WM3      -0.641100
      5 NAA         -1.7440     1.6980     0.9000 n8         1 WM3      -0.735000
      6 CAG          0.4780    -0.1560    -0.1780 ca         1 WM3      -0.307500
      7 CAF          1.1880    -1.0410     0.6250 ca         1 WM3      -0.012000
      8 CAH          1.0890     0.9530    -0.7500 ca         1 WM3      -0.012000
      9 CAK          2.4380     1.1740    -0.5120 ca         1 WM3      -0.134000
     10 CAJ          3.1590     0.2970     0.2870 ca         1 WM3      -0.056000
     11 CAI          2.5350    -0.8080     0.8540 ca         1 WM3      -0.134000
     12 H1          -1.9940    -0.1910     1.6860 hn         1 WM3       0.459000
     13 H2          -2.6000     2.1980     1.0940 hn         1 WM3       0.415500
     14 H3          -1.0830     1.8850     1.6430 hn         1 WM3       0.415500
     15 H4           0.7070    -1.9050     1.0620 ha         1 WM3       0.138000
     16 H5           0.5300     1.6340    -1.3760 ha         1 WM3       0.138000
     17 H6           2.9250     2.0320    -0.9550 ha         1 WM3       0.119500
     18 H7           4.2110     0.4730     0.4690 ha         1 WM3       0.116000
     19 H8           3.0990    -1.4930     1.4730 ha         1 WM3       0.119500
@<TRIPOS>BOND
     1     1     2 2   
     2     2     3 2   
     3     2     4 1   
     4     2     6 1   
     5     4     5 1   
     6     4    12 1   
     7     5    13 1   
     8     5    14 1   
     9     6     7 ar  
    10     6     8 ar  
    11     7    11 ar  
    12     7    15 1   
    13     8     9 ar  
    14     8    16 1   
    15     9    10 ar  
    16     9    17 1   
    17    10    11 ar  
    18    10    18 1   
    19    11    19 1   
@<TRIPOS>SUBSTRUCTURE
     1 WM3         1 TEMP              0 ****  ****    0 ROOT
