@<TRIPOS>MOLECULE
WM3
   19    19     1     0     0
SMALL
No Charge or Current Charge


@<TRIPOS>ATOM
      1 OAB         -1.5680    -1.8070     0.1990 o          1 WM3      -0.525000
      2 SAD         -1.2480    -0.5410    -0.4710 sy         1 WM3       1.161600
      3 OAE         -1.5860    -0.2810    -1.8750 o          1 WM3      -0.525000
      4 NAC         -2.0250     0.6940     0.4270 n7         1 WM3      -0.641100
      5 NAA         -1.4940     1.1840     1.7570 n8         1 WM3      -0.735000
      6 CAG          0.4980    -0.1370    -0.2270 ca         1 WM3      -0.307500
      7 CAF          1.2520    -0.8040     0.7620 ca         1 WM3      -0.012000
      8 CAH          1.1140     0.8470    -1.0300 ca         1 WM3      -0.012000
      9 CAK          2.4730     1.1560    -0.8460 ca         1 WM3      -0.134000
     10 CAJ          3.2230     0.4880     0.1370 ca         1 WM3      -0.056000
     11 CAI          2.6120    -0.4900     0.9400 ca         1 WM3      -0.134000
     12 H1          -3.0200     0.4290     0.4260 hn         1 WM3       0.459000
     13 H2          -1.6270     2.1960     1.9130 hn         1 WM3       0.415500
     14 H3          -1.8800     0.6880     2.5780 hn         1 WM3       0.415500
     15 H4           0.7920    -1.5630     1.3930 ha         1 WM3       0.138000
     16 H5           0.5440     1.3740    -1.7940 ha         1 WM3       0.138000
     17 H6           2.9450     1.9140    -1.4660 ha         1 WM3       0.119500
     18 H7           4.2750     0.7290     0.2780 ha         1 WM3       0.116000
     19 H8           3.1910    -1.0060     1.7020 ha         1 WM3       0.119500
@<TRIPOS>BOND
     1     1     2 2   
     2     2     3 2   
     3     2     4 1   
     4     2     6 1   
     5     4     5 1   
     6     4    12 1   
     7     5    13 1   
     8     5    14 1   
     9     6     7 ar  
    10     6     8 ar  
    11     7    11 ar  
    12     7    15 1   
    13     8     9 ar  
    14     8    16 1   
    15     9    10 ar  
    16     9    17 1   
    17    10    11 ar  
    18    10    18 1   
    19    11    19 1   
@<TRIPOS>SUBSTRUCTURE
     1 WM3         1 TEMP              0 ****  ****    0 ROOT
