@<TRIPOS>MOLECULE
WM4
   18    18     1     0     0
SMALL
No Charge or Current Charge


@<TRIPOS>ATOM
      1 CAE         -1.1920     1.2550     0.1110 ca         1 WM4      -0.074500
      2 CAH         -2.5750     1.0030     0.0990 ca         1 WM4      -0.118500
      3 CAI         -3.0510    -0.3120    -0.0100 ca         1 WM4      -0.090000
      4 CAJ         -2.1410    -1.3760    -0.1070 ca         1 WM4      -0.118500
      5 CAG         -0.7570    -1.1300    -0.0950 ca         1 WM4      -0.074500
      6 CAF         -0.2610     0.1940     0.0150 ca         1 WM4      -0.155600
      7 CAB          1.2260     0.5040     0.0320 c          1 WM4       0.633700
      8 OAA          1.6490     1.6510     0.1270 o          1 WM4      -0.560100
      9 NAC          2.0990    -0.5870    -0.0670 ns         1 WM4      -0.410300
     10 NAD          3.5600    -0.5050    -0.0700 n8         1 WM4      -0.717200
     11 H1          -0.8470     2.2840     0.1970 ha         1 WM4       0.122000
     12 H2          -3.2780     1.8300     0.1740 ha         1 WM4       0.116500
     13 H3          -4.1210    -0.5060    -0.0200 ha         1 WM4       0.115000
     14 H4          -2.5090    -2.3960    -0.1920 ha         1 WM4       0.116500
     15 H5          -0.0860    -1.9810    -0.1720 ha         1 WM4       0.122000
     16 H6           1.6590    -1.5040    -0.1430 hn         1 WM4       0.300500
     17 H7           3.9700    -1.0390     0.7120 hn         1 WM4       0.396000
     18 H8           3.9590    -0.8980    -0.9360 hn         1 WM4       0.396000
@<TRIPOS>BOND
     1     1     2 ar  
     2     1     6 ar  
     3     1    11 1   
     4     2     3 ar  
     5     2    12 1   
     6     3     4 ar  
     7     3    13 1   
     8     4     5 ar  
     9     4    14 1   
    10     5     6 ar  
    11     5    15 1   
    12     6     7 1   
    13     7     8 2   
    14     7     9 1   
    15     9    10 1   
    16     9    16 1   
    17    10    17 1   
    18    10    18 1   
@<TRIPOS>SUBSTRUCTURE
     1 WM4         1 TEMP              0 ****  ****    0 ROOT
