@<TRIPOS>MOLECULE
WM4
   18    18     1     0     0
SMALL
abcg2


@<TRIPOS>ATOM
      1 CAE         -1.1070     1.2000    -0.0010 ca         1 WM4      -0.074500
      2 CAH         -2.4710     0.9880    -0.1290 ca         1 WM4      -0.118500
      3 CAI         -2.9830    -0.3030    -0.0860 ca         1 WM4      -0.090000
      4 CAJ         -2.1240    -1.3800     0.0850 ca         1 WM4      -0.118500
      5 CAG         -0.7570    -1.1700     0.2000 ca         1 WM4      -0.074500
      6 CAF         -0.2370     0.1220     0.1490 ca         1 WM4      -0.155600
      7 CAB          1.2260     0.4090     0.2940 c          1 WM4       0.633700
      8 OAA          1.6220     1.4450     0.8010 o          1 WM4      -0.560100
      9 NAC          2.0340    -0.5530    -0.1890 ns         1 WM4      -0.410300
     10 NAD          3.4090    -0.4430    -0.0940 n8         1 WM4      -0.717200
     11 H1          -0.7150     2.2090    -0.0270 ha         1 WM4       0.122000
     12 H2          -3.1360     1.8310    -0.2590 ha         1 WM4       0.116500
     13 H3          -4.0480    -0.4680    -0.1780 ha         1 WM4       0.115000
     14 H4          -2.5170    -2.3870     0.1360 ha         1 WM4       0.116500
     15 H5          -0.1090    -2.0230     0.3540 ha         1 WM4       0.122000
     16 H6           1.6410    -1.3190    -0.7160 hn         1 WM4       0.300500
     17 H7           3.7720    -1.2830     0.3380 hn         1 WM4       0.396000
     18 H8           3.8030    -0.3870    -1.0240 hn         1 WM4       0.396000
@<TRIPOS>BOND
     1     1     2 ar  
     2     1     6 ar  
     3     1    11 1   
     4     2     3 ar  
     5     2    12 1   
     6     3     4 ar  
     7     3    13 1   
     8     4     5 ar  
     9     4    14 1   
    10     5     6 ar  
    11     5    15 1   
    12     6     7 1   
    13     7     8 2   
    14     7     9 1   
    15     9    10 1   
    16     9    16 1   
    17    10    17 1   
    18    10    18 1   
@<TRIPOS>SUBSTRUCTURE
     1 WM4         1 TEMP              0 ****  ****    0 ROOT
