@<TRIPOS>MOLECULE
WM5
   30    31     1     0     0
SMALL
No Charge or Current Charge


@<TRIPOS>ATOM
      1 C01          3.3890     5.9130    19.7620 ca         1 WM5       0.338000
      2 C02          2.4420     6.1950    18.7500 ca         1 WM5      -0.188600
      3 N03          4.2590     6.9080    20.1980 nu         1 WM5      -0.986000
      4 C04          3.4800     4.6100    20.2880 ca         1 WM5      -0.208000
      5 C05          1.5680     5.1680    18.3230 ca         1 WM5      -0.058000
      6 C06          2.3340     7.5650    18.1210 c          1 WM5       0.711600
      7 C07          5.0330     7.1420    21.3430 ca         1 WM5       0.340000
      8 C13          4.7110     6.5380    22.5740 ca         1 WM5      -0.175000
      9 C16          5.4830     6.7950    23.7200 ca         1 WM5      -0.110000
     10 C17          6.5760     7.6710    23.6480 ca         1 WM5      -0.152000
     11 C18          7.4850     9.6060    19.9080 c3         1 WM5       0.154900
     12 C08          2.6130     3.5970    19.8530 ca         1 WM5      -0.099000
     13 C09          1.6520     3.8800    18.8750 ca         1 WM5      -0.186000
     14 O10          3.3460     8.2450    18.0030 o          1 WM5      -0.716000
     15 O11          1.2390     7.9280    17.7180 o          1 WM5      -0.716000
     16 C12          6.1240     8.0520    21.2770 ca         1 WM5       0.069100
     17 C14          6.8960     8.3040    22.4360 ca         1 WM5      -0.168000
     18 O15          6.4020     8.6730    20.0660 os         1 WM5      -0.325100
     19 H19          4.3410     7.6600    19.4960 hn         1 WM5       0.574000
     20 H20          4.2400     4.3660    21.0240 ha         1 WM5       0.098000
     21 H21          0.8260     5.3660    17.5510 ha         1 WM5       0.128000
     22 H25          3.8500     5.8840    22.6550 ha         1 WM5       0.123000
     23 H27          5.2280     6.3210    24.6650 ha         1 WM5       0.095000
     24 H28          7.1700     7.8690    24.5370 ha         1 WM5       0.093000
     25 H30          7.5210     9.9730    18.8750 h1         1 WM5       0.031033
     26 H31          7.3550    10.4700    20.5720 h1         1 WM5       0.031033
     27 H29          8.4470     9.1280    20.1330 h1         1 WM5       0.031033
     28 H22          2.6910     2.5950    20.2690 ha         1 WM5       0.082000
     29 H23          0.9770     3.0980    18.5340 ha         1 WM5       0.089000
     30 H26          7.7410     8.9870    22.4160 ha         1 WM5       0.100000
@<TRIPOS>BOND
     1     1     2 ar  
     2     1     3 1   
     3     1     4 ar  
     4     2     5 ar  
     5     2     6 1   
     6     3     7 1   
     7     3    19 1   
     8     4    12 ar  
     9     4    20 1   
    10     5    13 ar  
    11     5    21 1   
    12     6    14 1   
    13     6    15 1   
    14     7     8 ar  
    15     7    16 ar  
    16     8     9 ar  
    17     8    22 1   
    18     9    10 ar  
    19     9    23 1   
    20    10    17 ar  
    21    10    24 1   
    22    11    18 1   
    23    11    25 1   
    24    11    26 1   
    25    11    27 1   
    26    12    13 ar  
    27    12    28 1   
    28    13    29 1   
    29    16    17 ar  
    30    16    18 1   
    31    17    30 1   
@<TRIPOS>SUBSTRUCTURE
     1 WM5         1 TEMP              0 ****  ****    0 ROOT
