@<TRIPOS>MOLECULE
WM5
   30    31     1     0     0
SMALL
abcg2


@<TRIPOS>ATOM
      1 C01          3.4460     5.9480    19.7690 ca         1 WM5       0.338000
      2 C02          2.4820     6.2170    18.7590 ca         1 WM5      -0.188600
      3 N03          4.3360     6.9410    20.1290 nu         1 WM5      -0.986000
      4 C04          3.5000     4.6570    20.3250 ca         1 WM5      -0.208000
      5 C05          1.6120     5.1940    18.3810 ca         1 WM5      -0.058000
      6 C06          2.3590     7.5640    18.0560 c          1 WM5       0.711600
      7 C07          5.0490     7.1100    21.3060 ca         1 WM5       0.340000
      8 C13          4.7440     6.5020    22.5250 ca         1 WM5      -0.175000
      9 C16          5.5010     6.7550    23.6670 ca         1 WM5      -0.110000
     10 C17          6.5720     7.6340    23.6150 ca         1 WM5      -0.152000
     11 C18          7.4040     9.5680    19.9550 c3         1 WM5       0.154900
     12 C08          2.6220     3.6660    19.9190 ca         1 WM5      -0.099000
     13 C09          1.6620     3.9270    18.9450 ca         1 WM5      -0.186000
     14 O10          3.3250     8.3800    18.1660 o          1 WM5      -0.716000
     15 O11          1.3160     7.7810    17.3970 o          1 WM5      -0.716000
     16 C12          6.1370     8.0180    21.2710 ca         1 WM5       0.069100
     17 C14          6.8830     8.2740    22.4130 ca         1 WM5      -0.168000
     18 O15          6.3610     8.6030    20.0590 os         1 WM5      -0.325100
     19 H19          4.2980     7.7310    19.4780 hn         1 WM5       0.574000
     20 H20          4.2570     4.4250    21.0580 ha         1 WM5       0.098000
     21 H21          0.8800     5.4230    17.6180 ha         1 WM5       0.128000
     22 H25          3.8920     5.8420    22.5920 ha         1 WM5       0.123000
     23 H27          5.2390     6.2660    24.5960 ha         1 WM5       0.095000
     24 H28          7.1650     7.8370    24.4970 ha         1 WM5       0.093000
     25 H30          7.3980     9.9040    18.9210 h1         1 WM5       0.031033
     26 H31          7.2210    10.4170    20.6190 h1         1 WM5       0.031033
     27 H29          8.3750     9.1250    20.1910 h1         1 WM5       0.031033
     28 H22          2.6970     2.6800    20.3620 ha         1 WM5       0.082000
     29 H23          0.9730     3.1550    18.6250 ha         1 WM5       0.089000
     30 H26          7.7130     8.9640    22.3750 ha         1 WM5       0.100000
@<TRIPOS>BOND
     1     1     2 ar  
     2     1     3 1   
     3     1     4 ar  
     4     2     5 ar  
     5     2     6 1   
     6     3     7 1   
     7     3    19 1   
     8     4    12 ar  
     9     4    20 1   
    10     5    13 ar  
    11     5    21 1   
    12     6    14 1   
    13     6    15 1   
    14     7     8 ar  
    15     7    16 ar  
    16     8     9 ar  
    17     8    22 1   
    18     9    10 ar  
    19     9    23 1   
    20    10    17 ar  
    21    10    24 1   
    22    11    18 1   
    23    11    25 1   
    24    11    26 1   
    25    11    27 1   
    26    12    13 ar  
    27    12    28 1   
    28    13    29 1   
    29    16    17 ar  
    30    16    18 1   
    31    17    30 1   
@<TRIPOS>SUBSTRUCTURE
     1 WM5         1 TEMP              0 ****  ****    0 ROOT
