@<TRIPOS>MOLECULE
WM7
   29    30     1     0     0
SMALL
abcg2


@<TRIPOS>ATOM
      1 C10        -35.1410    21.8300    -3.7260 ca         1 WM7      -0.114500
      2 C13        -34.4910    22.9090    -1.2610 ca         1 WM7      -0.097000
      3 C01        -36.4610    21.7840    -0.1640 c3         1 WM7       0.209100
      4 C03        -38.7480    21.5350     0.6410 c5         1 WM7       0.134500
      5 C04        -38.6970    22.4230     1.9030 c5         1 WM7      -0.149400
      6 C05        -39.8970    23.3930     1.7530 c5         1 WM7       0.137800
      7 C07        -40.2150    21.6810     0.2240 c5         1 WM7       0.139800
      8 C08        -35.6150    22.0960    -1.3710 ca         1 WM7      -0.092300
      9 C09        -35.9340    21.5640    -2.6200 ca         1 WM7      -0.097000
     10 C11        -34.0160    22.6380    -3.6040 ca         1 WM7      -0.108000
     11 C12        -33.6930    23.1780    -2.3670 ca         1 WM7      -0.114500
     12 N02        -37.8720    21.9410    -0.4480 n7         1 WM7      -0.864400
     13 N06        -40.5820    23.0640     0.5010 n7         1 WM7      -0.837400
     14 H1         -35.3990    21.4060    -4.6890 ha         1 WM7       0.111500
     15 H2         -34.2360    23.3380    -0.2990 ha         1 WM7       0.116500
     16 H3         -36.2970    20.7410     0.1300 h1         1 WM7       0.036200
     17 H4         -36.1060    22.3900     0.6830 h1         1 WM7       0.036200
     18 H5         -38.5050    20.4950     0.8780 h1         1 WM7       0.071700
     19 H7         -37.7450    22.9510     1.9880 hc         1 WM7       0.050700
     20 H8         -39.5940    24.4400     1.7500 h1         1 WM7       0.050700
     21 H9         -40.5870    23.2630     2.5910 h1         1 WM7       0.050700
     22 H10        -40.3860    21.4260    -0.8230 h1         1 WM7       0.064700
     23 H11        -40.8350    21.0160     0.8350 h1         1 WM7       0.064700
     24 H12        -36.8130    20.9400    -2.7240 ha         1 WM7       0.116500
     25 H13        -33.3980    22.8470    -4.4680 ha         1 WM7       0.111000
     26 H14        -32.8230    23.8140    -2.2610 ha         1 WM7       0.111500
     27 H15        -38.0520    22.9080    -0.6970 hn         1 WM7       0.410000
     28 H17        -40.2250    23.6540    -0.2400 hn         1 WM7       0.400000
     29 H6         -38.8020    21.8160     2.8040 hc         1 WM7       0.050700
@<TRIPOS>BOND
     1     1     9 ar  
     2     1    10 ar  
     3     1    14 1   
     4     2     8 ar  
     5     2    11 ar  
     6     2    15 1   
     7     3     8 1   
     8     3    12 1   
     9     3    16 1   
    10     3    17 1   
    11     4     5 1   
    12     4     7 1   
    13     4    12 1   
    14     4    18 1   
    15     5     6 1   
    16     5    19 1   
    17     5    29 1   
    18     6    13 1   
    19     6    20 1   
    20     6    21 1   
    21     7    13 1   
    22     7    22 1   
    23     7    23 1   
    24     8     9 ar  
    25     9    24 1   
    26    10    11 ar  
    27    10    25 1   
    28    11    26 1   
    29    12    27 1   
    30    13    28 1   
@<TRIPOS>SUBSTRUCTURE
     1 WM7         1 TEMP              0 ****  ****    0 ROOT
