@<TRIPOS>MOLECULE
WM7
   29    30     1     0     0
SMALL
No Charge or Current Charge


@<TRIPOS>ATOM
      1 C10        -34.6820    21.3830    -3.6580 ca         1 WM7      -0.114500
      2 C13        -34.8440    23.0810    -1.4240 ca         1 WM7      -0.097000
      3 C01        -36.5020    21.5260    -0.2820 c3         1 WM7       0.209100
      4 C03        -38.8670    21.7240     0.5570 c5         1 WM7       0.134500
      5 C04        -38.5810    22.6960     1.7410 c5         1 WM7      -0.149400
      6 C05        -40.0110    23.0300     2.2170 c5         1 WM7       0.137800
      7 C07        -40.3040    22.1570     0.0840 c5         1 WM7       0.139800
      8 C08        -35.6020    21.8930    -1.4540 ca         1 WM7      -0.092300
      9 C09        -35.5170    21.0470    -2.5770 ca         1 WM7      -0.097000
     10 C11        -33.9270    22.5680    -3.6210 ca         1 WM7      -0.108000
     11 C12        -34.0090    23.4170    -2.5040 ca         1 WM7      -0.114500
     12 N02        -37.8780    22.0010    -0.5210 n7         1 WM7      -0.864400
     13 N06        -40.6860    23.3170     0.9370 n7         1 WM7      -0.837400
     14 H1         -34.6210    20.7260    -4.5220 ha         1 WM7       0.111500
     15 H2         -34.9010    23.7430    -0.5630 ha         1 WM7       0.116500
     16 H3         -36.4920    20.4350    -0.1470 h1         1 WM7       0.036200
     17 H4         -36.0920    21.9710     0.6350 h1         1 WM7       0.036200
     18 H5         -38.8630    20.6690     0.8680 h1         1 WM7       0.071700
     19 H7         -38.0560    23.6070     1.4280 hc         1 WM7       0.050700
     20 H8         -40.0330    23.8930     2.8980 h1         1 WM7       0.050700
     21 H9         -40.4760    22.1750     2.7300 h1         1 WM7       0.050700
     22 H10        -40.3440    22.4080    -0.9850 h1         1 WM7       0.064700
     23 H11        -41.0050    21.3250     0.2450 h1         1 WM7       0.064700
     24 H12        -36.1000    20.1290    -2.6130 ha         1 WM7       0.116500
     25 H13        -33.2820    22.8280    -4.4570 ha         1 WM7       0.111000
     26 H14        -33.4260    24.3350    -2.4750 ha         1 WM7       0.111500
     27 H15        -37.8370    23.0110    -0.6890 hn         1 WM7       0.410000
     28 H17        -40.2500    24.1590     0.5410 hn         1 WM7       0.400000
     29 H6         -37.9790    22.2280     2.5290 hc         1 WM7       0.050700
@<TRIPOS>BOND
     1     1     9 ar  
     2     1    10 ar  
     3     1    14 1   
     4     2     8 ar  
     5     2    11 ar  
     6     2    15 1   
     7     3     8 1   
     8     3    12 1   
     9     3    16 1   
    10     3    17 1   
    11     4     5 1   
    12     4     7 1   
    13     4    12 1   
    14     4    18 1   
    15     5     6 1   
    16     5    19 1   
    17     5    29 1   
    18     6    13 1   
    19     6    20 1   
    20     6    21 1   
    21     7    13 1   
    22     7    22 1   
    23     7    23 1   
    24     8     9 ar  
    25     9    24 1   
    26    10    11 ar  
    27    10    25 1   
    28    11    26 1   
    29    12    27 1   
    30    13    28 1   
@<TRIPOS>SUBSTRUCTURE
     1 WM7         1 TEMP              0 ****  ****    0 ROOT
