@<TRIPOS>MOLECULE
WM9
   38    40     1     0     0
SMALL
abcg2


@<TRIPOS>ATOM
      1 C1           3.0670    -0.1780    -2.0740 c3         1 WM9      -0.103100
      2 C2           2.7000    -0.1510    -0.5830 c6         1 WM9       0.434500
      3 N3           2.3250     1.1880    -0.2360 n2         1 WM9      -0.730900
      4 C4           3.0360     1.8800     0.5630 c2         1 WM9       0.649200
      5 C5           4.3240     1.4080     1.1800 c6         1 WM9      -0.209700
      6 C6           4.8240     0.2050     0.4080 c6         1 WM9       0.162600
      7 O7           3.7560    -0.6900     0.1970 os         1 WM9      -0.467000
      8 N8           2.6210     3.1160     0.9510 nv         1 WM9      -1.032200
      9 C9           1.5220    -1.0970    -0.3630 ca         1 WM9      -0.070300
     10 C10          1.7270    -2.4760    -0.3810 ca         1 WM9      -0.080000
     11 C11          0.6570    -3.3420    -0.2190 ca         1 WM9      -0.124000
     12 C12         -0.6280    -2.8500    -0.0390 ca         1 WM9      -0.093000
     13 C13         -0.8530    -1.4750    -0.0220 cp         1 WM9      -0.053000
     14 C14          0.2340    -0.6130    -0.1860 ca         1 WM9      -0.067000
     15 C15         -2.2150    -0.9350     0.1640 cp         1 WM9      -0.015000
     16 C16         -3.1260    -1.5590     1.0180 ca         1 WM9      -0.102000
     17 C17         -4.4020    -1.0440     1.1870 ca         1 WM9      -0.104000
     18 C18         -4.8020     0.1010     0.5120 ca         1 WM9      -0.105000
     19 C19         -3.8930     0.7160    -0.3330 ca         1 WM9       0.120000
     20 C20         -2.6150     0.2160    -0.5160 ca         1 WM9      -0.096000
     21 CL          -4.3670     2.1440    -1.1970 cl         1 WM9      -0.210000
     22 H11C         3.9180     0.4710    -2.2860 hc         1 WM9       0.045700
     23 H12C         3.3130    -1.1900    -2.3990 hc         1 WM9       0.045700
     24 H13C         2.2270     0.1750    -2.6710 hc         1 WM9       0.045700
     25 H51C         5.0660     2.2090     1.1710 hc         1 WM9       0.068700
     26 H52C         4.1450     1.1530     2.2280 hc         1 WM9       0.068700
     27 H81N         1.8540     3.5220     0.4410 hn         1 WM9       0.472000
     28 H82N         3.3140     3.7730     1.2680 hn         1 WM9       0.472000
     29 H61C         5.2820     0.5230    -0.5360 h1         1 WM9       0.050200
     30 H62C         5.5860    -0.3350     0.9710 h1         1 WM9       0.050200
     31 H10          2.7190    -2.8830    -0.5260 ha         1 WM9       0.121000
     32 H14          0.0850     0.4580    -0.1560 ha         1 WM9       0.137000
     33 H11          0.8220    -4.4120    -0.2400 ha         1 WM9       0.112000
     34 H12         -1.4550    -3.5410     0.0630 ha         1 WM9       0.112000
     35 H16         -2.8330    -2.4430     1.5690 ha         1 WM9       0.119000
     36 H20         -1.9370     0.7080    -1.2010 ha         1 WM9       0.134000
     37 H17         -5.0950    -1.5350     1.8580 ha         1 WM9       0.116000
     38 H18         -5.7970     0.5020     0.6450 ha         1 WM9       0.128000
@<TRIPOS>BOND
     1     1     2 1   
     2     1    22 1   
     3     1    23 1   
     4     1    24 1   
     5     2     3 1   
     6     2     7 1   
     7     2     9 1   
     8     3     4 2   
     9     4     5 1   
    10     4     8 1   
    11     5     6 1   
    12     5    25 1   
    13     5    26 1   
    14     6     7 1   
    15     6    29 1   
    16     6    30 1   
    17     8    27 1   
    18     8    28 1   
    19     9    10 ar  
    20     9    14 ar  
    21    10    11 ar  
    22    10    31 1   
    23    11    12 ar  
    24    11    33 1   
    25    12    13 ar  
    26    12    34 1   
    27    13    14 ar  
    28    13    15 1   
    29    14    32 1   
    30    15    16 ar  
    31    15    20 ar  
    32    16    17 ar  
    33    16    35 1   
    34    17    18 ar  
    35    17    37 1   
    36    18    19 ar  
    37    18    38 1   
    38    19    20 ar  
    39    19    21 1   
    40    20    36 1   
@<TRIPOS>SUBSTRUCTURE
     1 WM9         1 TEMP              0 ****  ****    0 ROOT
