@<TRIPOS>MOLECULE
WM9
   38    40     1     0     0
SMALL
No Charge or Current Charge


@<TRIPOS>ATOM
      1 C1           3.1950    -0.1730    -1.9930 c3         1 WM9      -0.103100
      2 C2           2.7090    -0.1330    -0.5150 c6         1 WM9       0.434500
      3 N3           2.3690     1.2670    -0.2080 n2         1 WM9      -0.730900
      4 C4           3.1360     1.9520     0.5350 c2         1 WM9       0.649200
      5 C5           4.4180     1.4780     1.1760 c6         1 WM9      -0.209700
      6 C6           4.9000     0.1910     0.5010 c6         1 WM9       0.162600
      7 O7           3.7650    -0.6680     0.3130 os         1 WM9      -0.467000
      8 N8           2.8140     3.2350     0.8220 nv         1 WM9      -1.032200
      9 C9           1.4930    -1.0860    -0.3620 ca         1 WM9      -0.070300
     10 C10          1.6940    -2.4820    -0.4400 ca         1 WM9      -0.080000
     11 C11          0.6150    -3.3700    -0.3150 ca         1 WM9      -0.124000
     12 C12         -0.6840    -2.8790    -0.1150 ca         1 WM9      -0.093000
     13 C13         -0.9310    -1.4870    -0.0380 cp         1 WM9      -0.053000
     14 C14          0.1740    -0.6060    -0.1660 ca         1 WM9      -0.067000
     15 C15         -2.3180    -0.9610     0.1690 cp         1 WM9      -0.015000
     16 C16         -3.2440    -1.6450     0.9970 ca         1 WM9      -0.102000
     17 C17         -4.5470    -1.1530     1.1930 ca         1 WM9      -0.104000
     18 C18         -4.9500     0.0350     0.5620 ca         1 WM9      -0.105000
     19 C19         -4.0500     0.7270    -0.2620 ca         1 WM9       0.120000
     20 C20         -2.7490     0.2360    -0.4570 ca         1 WM9      -0.096000
     21 Cl          -4.5560     2.2120    -1.0580 cl         1 WM9      -0.210000
     22 H11C         3.9680     0.5760    -2.1990 hc         1 WM9       0.045700
     23 H12C         3.6030    -1.1560    -2.2520 hc         1 WM9       0.045700
     24 H13C         2.3630     0.0280    -2.6790 hc         1 WM9       0.045700
     25 H51C         5.2000     2.2440     1.1100 hc         1 WM9       0.068700
     26 H52C         4.2370     1.2890     2.2420 hc         1 WM9       0.068700
     27 H81N         2.1210     3.6020     0.1810 hn         1 WM9       0.472000
     28 H82N         3.6060     3.8440     0.9870 hn         1 WM9       0.472000
     29 H61C         5.3710     0.4120    -0.4670 h1         1 WM9       0.050200
     30 H62C         5.6430    -0.3170     1.1320 h1         1 WM9       0.050200
     31 H10          2.6930    -2.8820    -0.5960 ha         1 WM9       0.121000
     32 H14         -0.0070     0.4620    -0.0990 ha         1 WM9       0.137000
     33 H11          0.7850    -4.4430    -0.3770 ha         1 WM9       0.112000
     34 H12         -1.5070    -3.5840    -0.0340 ha         1 WM9       0.112000
     35 H16         -2.9470    -2.5590     1.5050 ha         1 WM9       0.119000
     36 H20         -2.0760     0.7830    -1.1120 ha         1 WM9       0.134000
     37 H17         -5.2410    -1.6910     1.8360 ha         1 WM9       0.116000
     38 H18         -5.9570     0.4180     0.7110 ha         1 WM9       0.128000
@<TRIPOS>BOND
     1     1     2 1   
     2     1    22 1   
     3     1    23 1   
     4     1    24 1   
     5     2     3 1   
     6     2     7 1   
     7     2     9 1   
     8     3     4 2   
     9     4     5 1   
    10     4     8 1   
    11     5     6 1   
    12     5    25 1   
    13     5    26 1   
    14     6     7 1   
    15     6    29 1   
    16     6    30 1   
    17     8    27 1   
    18     8    28 1   
    19     9    10 ar  
    20     9    14 ar  
    21    10    11 ar  
    22    10    31 1   
    23    11    12 ar  
    24    11    33 1   
    25    12    13 ar  
    26    12    34 1   
    27    13    14 ar  
    28    13    15 1   
    29    14    32 1   
    30    15    16 ar  
    31    15    20 ar  
    32    16    17 ar  
    33    16    35 1   
    34    17    18 ar  
    35    17    37 1   
    36    18    19 ar  
    37    18    38 1   
    38    19    20 ar  
    39    19    21 1   
    40    20    36 1   
@<TRIPOS>SUBSTRUCTURE
     1 WM9         1 TEMP              0 ****  ****    0 ROOT
