@<TRIPOS>MOLECULE
WMA
   37    39     1     0     0
SMALL
No Charge or Current Charge


@<TRIPOS>ATOM
      1 N           14.2940   -12.1300     8.1080 na         1 WMA      -0.220700
      2 C           18.1960   -16.8270     7.9770 c          1 WMA       0.560000
      3 O           17.9290   -17.7610     7.2370 o          1 WMA      -0.556000
      4 C1          17.1130   -15.8240     8.4760 c6         1 WMA       0.036700
      5 C10         12.1410   -13.2030     8.7900 ca         1 WMA      -0.126000
      6 C11         19.9890   -15.4880     9.1910 c6         1 WMA       0.038700
      7 C12         20.9310   -14.6360     8.2880 c3         1 WMA      -0.074400
      8 C13         20.2670   -13.9900     7.0520 c3         1 WMA      -0.090100
      9 C15         18.8810   -14.5910     9.8290 c          1 WMA       0.560000
     10 C2          16.5420   -15.0270     7.2690 c3         1 WMA      -0.000200
     11 C3          15.4510   -14.0570     7.6450 cc         1 WMA      -0.163400
     12 C4          15.5300   -12.6680     7.6720 cd         1 WMA      -0.151100
     13 C5          13.4700   -13.2150     8.3440 ca         1 WMA      -0.048200
     14 C6          14.1220   -14.3850     8.0770 ca         1 WMA      -0.095800
     15 C7          13.4980   -15.6320     8.2300 ca         1 WMA      -0.064000
     16 C8          12.1600   -15.6510     8.6780 ca         1 WMA      -0.137000
     17 C9          11.4840   -14.4400     8.9580 ca         1 WMA      -0.090000
     18 N1          17.5730   -14.9000     9.5430 ns         1 WMA      -0.495900
     19 N2          19.4780   -16.6690     8.4530 ns         1 WMA      -0.501900
     20 H1          14.0600   -11.1490     8.2260 hn         1 WMA       0.353000
     21 H2          16.3080   -16.4390     8.9000 h1         1 WMA       0.066700
     22 H3          11.6280   -12.2670     9.0000 ha         1 WMA       0.114000
     23 H4          20.5810   -15.8670    10.0360 h1         1 WMA       0.062700
     24 H5          21.7620   -15.2630     7.9420 hc         1 WMA       0.055200
     25 H6          21.3880   -13.8400     8.8880 hc         1 WMA       0.055200
     26 H7          21.0070   -13.4160     6.4810 hc         1 WMA       0.040700
     27 H8          19.8460   -14.7530     6.3870 hc         1 WMA       0.040700
     28 H9          19.4660   -13.3040     7.3510 hc         1 WMA       0.040700
     29 H10         16.1490   -15.7260     6.5200 hc         1 WMA       0.070700
     30 H11         17.3510   -14.4820     6.7680 hc         1 WMA       0.070700
     31 H12         16.3720   -12.0270     7.4210 h4         1 WMA       0.216000
     32 H13         14.0250   -16.5570     8.0080 ha         1 WMA       0.115000
     33 H14         11.6470   -16.6010     8.8080 ha         1 WMA       0.112000
     34 H15         10.4520   -14.4630     9.3030 ha         1 WMA       0.112000
     35 H16         16.8790   -14.3120     9.9890 hn         1 WMA       0.329500
     36 H17         20.1440   -17.3710     8.1500 hn         1 WMA       0.322500
     37 O1          19.1400   -13.6800    10.6000 o          1 WMA      -0.557000
@<TRIPOS>BOND
     1     1    12 1   
     2     1    13 1   
     3     1    20 1   
     4     2     3 2   
     5     2     4 1   
     6     2    19 1   
     7     4    10 1   
     8     4    18 1   
     9     4    21 1   
    10     5    13 ar  
    11     5    17 ar  
    12     5    22 1   
    13     6     7 1   
    14     6     9 1   
    15     6    19 1   
    16     6    23 1   
    17     7     8 1   
    18     7    24 1   
    19     7    25 1   
    20     8    26 1   
    21     8    27 1   
    22     8    28 1   
    23     9    18 1   
    24     9    37 2   
    25    10    11 1   
    26    10    29 1   
    27    10    30 1   
    28    11    12 2   
    29    11    14 1   
    30    12    31 1   
    31    13    14 ar  
    32    14    15 ar  
    33    15    16 ar  
    34    15    32 1   
    35    16    17 ar  
    36    16    33 1   
    37    17    34 1   
    38    18    35 1   
    39    19    36 1   
@<TRIPOS>SUBSTRUCTURE
     1 WMA         1 TEMP              0 ****  ****    0 ROOT
