@<TRIPOS>MOLECULE
WMA
   37    39     1     0     0
SMALL
abcg2


@<TRIPOS>ATOM
      1 N           13.6980   -12.3480     7.7640 na         1 WMA      -0.220700
      2 C           18.1610   -16.2970     7.2580 c          1 WMA       0.560000
      3 O           17.9350   -17.0610     6.3350 o          1 WMA      -0.556000
      4 C1          17.0720   -15.4140     7.8400 c6         1 WMA       0.036700
      5 C10         11.9780   -13.4410     9.2210 ca         1 WMA      -0.126000
      6 C11         19.6750   -15.4230     9.0340 c6         1 WMA       0.038700
      7 C12         21.1580   -15.0600     9.0440 c3         1 WMA      -0.074400
      8 C13         21.6040   -14.1990     7.8720 c3         1 WMA      -0.090100
      9 C15         18.7860   -14.1980     9.1630 c          1 WMA       0.560000
     10 C2          16.0720   -14.9840     6.7600 c3         1 WMA      -0.000200
     11 C3          14.9750   -14.1310     7.3010 cc         1 WMA      -0.163400
     12 C4          14.8050   -12.7890     7.0990 cd         1 WMA      -0.151100
     13 C5          13.1190   -13.3950     8.4210 ca         1 WMA      -0.048200
     14 C6          13.8970   -14.5430     8.1550 ca         1 WMA      -0.095800
     15 C7          13.5100   -15.7700     8.7060 ca         1 WMA      -0.064000
     16 C8          12.3800   -15.8200     9.4980 ca         1 WMA      -0.137000
     17 C9          11.6220   -14.6650     9.7530 ca         1 WMA      -0.090000
     18 N1          17.6310   -14.2450     8.4840 ns         1 WMA      -0.495900
     19 N2          19.3620   -16.1850     7.8400 ns         1 WMA      -0.501900
     20 H1          13.3610   -11.4000     7.7600 hn         1 WMA       0.353000
     21 H2          16.5400   -16.0300     8.5810 h1         1 WMA       0.066700
     22 H3          11.3920   -12.5510     9.4160 ha         1 WMA       0.114000
     23 H4          19.4750   -16.0350     9.9250 h1         1 WMA       0.062700
     24 H5          21.7280   -15.9920     9.0570 hc         1 WMA       0.055200
     25 H6          21.3780   -14.5610     9.9880 hc         1 WMA       0.055200
     26 H7          22.6750   -14.0060     7.9330 hc         1 WMA       0.040700
     27 H8          21.4160   -14.6850     6.9150 hc         1 WMA       0.040700
     28 H9          21.0990   -13.2330     7.8620 hc         1 WMA       0.040700
     29 H10         15.6630   -15.8860     6.3030 hc         1 WMA       0.070700
     30 H11         16.6090   -14.4450     5.9760 hc         1 WMA       0.070700
     31 H12         15.4000   -12.1090     6.5090 h4         1 WMA       0.216000
     32 H13         14.0840   -16.6690     8.5130 ha         1 WMA       0.115000
     33 H14         12.0680   -16.7620     9.9300 ha         1 WMA       0.112000
     34 H15         10.7420   -14.7350    10.3790 ha         1 WMA       0.112000
     35 H16         16.9920   -13.4720     8.6270 hn         1 WMA       0.329500
     36 H17         20.0770   -16.8230     7.5140 hn         1 WMA       0.322500
     37 O1          19.1120   -13.2500     9.8590 o          1 WMA      -0.557000
@<TRIPOS>BOND
     1     1    12 1   
     2     1    13 1   
     3     1    20 1   
     4     2     3 2   
     5     2     4 1   
     6     2    19 1   
     7     4    10 1   
     8     4    18 1   
     9     4    21 1   
    10     5    13 ar  
    11     5    17 ar  
    12     5    22 1   
    13     6     7 1   
    14     6     9 1   
    15     6    19 1   
    16     6    23 1   
    17     7     8 1   
    18     7    24 1   
    19     7    25 1   
    20     8    26 1   
    21     8    27 1   
    22     8    28 1   
    23     9    18 1   
    24     9    37 2   
    25    10    11 1   
    26    10    29 1   
    27    10    30 1   
    28    11    12 2   
    29    11    14 1   
    30    12    31 1   
    31    13    14 ar  
    32    14    15 ar  
    33    15    16 ar  
    34    15    32 1   
    35    16    17 ar  
    36    16    33 1   
    37    17    34 1   
    38    18    35 1   
    39    19    36 1   
@<TRIPOS>SUBSTRUCTURE
     1 WMA         1 TEMP              0 ****  ****    0 ROOT
