@<TRIPOS>MOLECULE
WMB
   49    53     1     0     0
SMALL
abcg2


@<TRIPOS>ATOM
      1 C02         16.8410    -4.8940   -21.8820 cc         1 WMB       0.037600
      2 C05         14.6570    -4.7180   -25.5010 cc         1 WMB       0.611300
      3 C10         13.2830    -4.9280   -25.9530 cx         1 WMB      -0.187000
      4 C11         12.4370    -5.9700   -25.2700 cx         1 WMB      -0.103900
      5 C13         19.2480    -4.3370   -21.9990 cc         1 WMB      -0.295300
      6 C15         19.4210    -3.7550   -24.4180 c6         1 WMB      -0.012100
      7 C16         20.7880    -3.1910   -24.0320 c6         1 WMB      -0.071400
      8 C17         21.4900    -4.0570   -22.9950 c6         1 WMB      -0.070400
      9 C18         20.6910    -4.0940   -21.6950 c6         1 WMB       0.009900
     10 C19         15.1800    -5.5880   -20.2600 c          1 WMB       0.630300
     11 C20         13.7550    -5.9230   -20.1050 ce         1 WMB      -0.313400
     12 C22         13.1900    -5.9370   -18.8860 cf         1 WMB      -0.018400
     13 C23         11.7240    -6.2240   -18.7430 c6         1 WMB      -0.092200
     14 C24         11.0020    -6.1450   -20.0730 c6         1 WMB       0.150600
     15 C26         12.9460    -6.2430   -21.3450 c6         1 WMB       0.208800
     16 C27         13.8830    -5.6700   -17.5600 c          1 WMB       0.721200
     17 S01         18.1430    -4.8410   -20.7620 ss         1 WMB       0.340000
     18 C03         17.2520    -4.5420   -23.1570 cd         1 WMB      -0.334500
     19 N04         15.5670    -5.2440   -21.5310 ns         1 WMB      -0.385100
     20 N06         15.6240    -4.4150   -26.3130 nd         1 WMB      -0.417300
     21 O07         16.7270    -4.3110   -25.4930 os         1 WMB      -0.098700
     22 N08         15.0510    -4.8170   -24.2010 nc         1 WMB      -0.802000
     23 C09         16.3280    -4.5590   -24.2540 cd         1 WMB       0.624500
     24 C12         12.1440    -4.5280   -25.0540 cx         1 WMB      -0.103900
     25 C14         18.6520    -4.2070   -23.2100 cd         1 WMB      -0.023300
     26 O21         16.0010    -5.5950   -19.3570 o          1 WMB      -0.539100
     27 O25         11.7220    -6.8560   -21.0540 os         1 WMB      -0.458000
     28 O28         13.9820    -4.4770   -17.2310 o          1 WMB      -0.697000
     29 O29         14.1710    -6.6880   -16.9100 o          1 WMB      -0.697000
     30 H31         13.1450    -4.7980   -27.0190 hc         1 WMB       0.093700
     31 H33         11.7730    -6.5450   -25.9000 hc         1 WMB       0.079950
     32 H32         12.8870    -6.5300   -24.4590 hc         1 WMB       0.079950
     33 H37         19.5470    -4.5940   -25.1100 hc         1 WMB       0.053700
     34 H36         18.8620    -2.9940   -24.9650 hc         1 WMB       0.053700
     35 H38         21.4010    -3.0980   -24.9300 hc         1 WMB       0.035200
     36 H39         20.6650    -2.1800   -23.6320 hc         1 WMB       0.035200
     37 H40         21.6070    -5.0730   -23.3830 hc         1 WMB       0.035200
     38 H41         22.4930    -3.6770   -22.7970 hc         1 WMB       0.035200
     39 H42         20.8070    -3.1470   -21.1580 hc         1 WMB       0.044700
     40 H43         21.0800    -4.8700   -21.0320 hc         1 WMB       0.044700
     41 H45         11.6000    -7.2140   -18.2930 hc         1 WMB       0.072200
     42 H44         11.2810    -5.5140   -18.0380 hc         1 WMB       0.072200
     43 H47         10.0100    -6.5930   -20.0090 h1         1 WMB       0.032700
     44 H46         10.8730    -5.0950   -20.3720 h1         1 WMB       0.032700
     45 H49         12.7790    -5.3280   -21.9380 h1         1 WMB       0.031200
     46 H48         13.4920    -6.9420   -21.9870 h1         1 WMB       0.031200
     47 H30         14.8960    -5.1860   -22.2950 hn         1 WMB       0.364500
     48 H34         12.3940    -4.0920   -24.0950 hc         1 WMB       0.079950
     49 H35         11.2750    -4.0980   -25.5320 hc         1 WMB       0.079950
@<TRIPOS>BOND
     1     1    17 1   
     2     1    18 2   
     3     1    19 1   
     4     2     3 1   
     5     2    20 2   
     6     2    22 1   
     7     3     4 1   
     8     3    24 1   
     9     3    30 1   
    10     4    24 1   
    11     4    31 1   
    12     4    32 1   
    13     5     9 1   
    14     5    17 1   
    15     5    25 2   
    16     6     7 1   
    17     6    25 1   
    18     6    33 1   
    19     6    34 1   
    20     7     8 1   
    21     7    35 1   
    22     7    36 1   
    23     8     9 1   
    24     8    37 1   
    25     8    38 1   
    26     9    39 1   
    27     9    40 1   
    28    10    11 1   
    29    10    19 1   
    30    10    26 2   
    31    11    12 2   
    32    11    15 1   
    33    12    13 1   
    34    12    16 1   
    35    13    14 1   
    36    13    41 1   
    37    13    42 1   
    38    14    27 1   
    39    14    43 1   
    40    14    44 1   
    41    15    27 1   
    42    15    45 1   
    43    15    46 1   
    44    16    28 1   
    45    16    29 1   
    46    18    23 1   
    47    18    25 1   
    48    19    47 1   
    49    20    21 1   
    50    21    23 1   
    51    22    23 2   
    52    24    48 1   
    53    24    49 1   
@<TRIPOS>SUBSTRUCTURE
     1 WMB         1 TEMP              0 ****  ****    0 ROOT
