@<TRIPOS>MOLECULE
WMB
   49    53     1     0     0
SMALL
No Charge or Current Charge


@<TRIPOS>ATOM
      1 C02         16.9970    -4.8420   -21.7260 cc         1 WMB       0.037600
      2 C05         14.6010    -4.4740   -25.2500 cc         1 WMB       0.611300
      3 C10         13.1680    -4.6440   -25.5840 cx         1 WMB      -0.187000
      4 C11         12.3710    -5.8020   -25.0180 cx         1 WMB      -0.103900
      5 C13         19.4500    -4.3520   -22.0170 cc         1 WMB      -0.295300
      6 C15         19.4100    -3.7370   -24.4760 c6         1 WMB      -0.012100
      7 C16         20.8680    -3.2560   -24.2610 c6         1 WMB      -0.071400
      8 C17         21.6240    -4.1690   -23.2720 c6         1 WMB      -0.070400
      9 C18         20.9420    -4.1460   -21.8850 c6         1 WMB       0.009900
     10 C19         15.2250    -5.5450   -20.0960 c          1 WMB       0.630300
     11 C20         13.7680    -5.9240   -20.0640 ce         1 WMB      -0.313400
     12 C22         12.9410    -5.8440   -18.9500 cf         1 WMB      -0.018400
     13 C23         11.5220    -6.4700   -19.0170 c6         1 WMB      -0.092200
     14 C24         11.0600    -6.7640   -20.4530 c6         1 WMB       0.150600
     15 C26         13.2560    -6.5530   -21.3700 c6         1 WMB       0.208800
     16 C27         13.2690    -5.1170   -17.6470 c          1 WMB       0.721200
     17 S01         18.4220    -4.8370   -20.6770 ss         1 WMB       0.340000
     18 C03         17.3320    -4.4740   -23.0220 cd         1 WMB      -0.334500
     19 N04         15.7040    -5.1790   -21.3410 ns         1 WMB      -0.385100
     20 N06         15.5130    -4.1270   -26.1390 nd         1 WMB      -0.417300
     21 O07         16.6930    -4.0880   -25.3730 os         1 WMB      -0.098700
     22 N08         15.0570    -4.6700   -23.9770 nc         1 WMB      -0.802000
     23 C09         16.3470    -4.4160   -24.0960 cd         1 WMB       0.624500
     24 C12         12.0800    -4.3890   -24.5590 cx         1 WMB      -0.103900
     25 C14         18.7330    -4.1750   -23.1800 cd         1 WMB      -0.023300
     26 O21         15.9510    -5.6100   -19.1170 o          1 WMB      -0.539100
     27 O25         12.1230    -7.4080   -21.1640 os         1 WMB      -0.458000
     28 O28         14.0850    -4.2060   -17.6470 o          1 WMB      -0.697000
     29 O29         12.5900    -5.3710   -16.6590 o          1 WMB      -0.697000
     30 H31         12.9480    -4.3550   -26.6090 hc         1 WMB       0.093700
     31 H33         11.6440    -6.2820   -25.6690 hc         1 WMB       0.079950
     32 H32         12.8680    -6.4760   -24.3260 hc         1 WMB       0.079950
     33 H37         19.4110    -4.5720   -25.1890 hc         1 WMB       0.053700
     34 H36         18.8550    -2.9170   -24.9500 hc         1 WMB       0.053700
     35 H38         21.3950    -3.2210   -25.2240 hc         1 WMB       0.035200
     36 H39         20.8620    -2.2280   -23.8730 hc         1 WMB       0.035200
     37 H40         21.6460    -5.1970   -23.6600 hc         1 WMB       0.035200
     38 H41         22.6690    -3.8450   -23.1790 hc         1 WMB       0.035200
     39 H42         21.1450    -3.1840   -21.3950 hc         1 WMB       0.044700
     40 H43         21.3900    -4.9180   -21.2430 hc         1 WMB       0.044700
     41 H45         11.5200    -7.4040   -18.4390 hc         1 WMB       0.072200
     42 H44         10.7900    -5.8060   -18.5390 hc         1 WMB       0.072200
     43 H47         10.1790    -7.4210   -20.4410 h1         1 WMB       0.032700
     44 H46         10.7900    -5.8310   -20.9690 h1         1 WMB       0.032700
     45 H49         12.9680    -5.7550   -22.0670 h1         1 WMB       0.031200
     46 H48         14.0460    -7.1510   -21.8480 h1         1 WMB       0.031200
     47 H30         15.0020    -5.1390   -22.0730 hn         1 WMB       0.364500
     48 H34         12.3760    -4.1040   -23.5530 hc         1 WMB       0.079950
     49 H35         11.1590    -3.9260   -24.9040 hc         1 WMB       0.079950
@<TRIPOS>BOND
     1     1    17 1   
     2     1    18 2   
     3     1    19 1   
     4     2     3 1   
     5     2    20 2   
     6     2    22 1   
     7     3     4 1   
     8     3    24 1   
     9     3    30 1   
    10     4    24 1   
    11     4    31 1   
    12     4    32 1   
    13     5     9 1   
    14     5    17 1   
    15     5    25 2   
    16     6     7 1   
    17     6    25 1   
    18     6    33 1   
    19     6    34 1   
    20     7     8 1   
    21     7    35 1   
    22     7    36 1   
    23     8     9 1   
    24     8    37 1   
    25     8    38 1   
    26     9    39 1   
    27     9    40 1   
    28    10    11 1   
    29    10    19 1   
    30    10    26 2   
    31    11    12 2   
    32    11    15 1   
    33    12    13 1   
    34    12    16 1   
    35    13    14 1   
    36    13    41 1   
    37    13    42 1   
    38    14    27 1   
    39    14    43 1   
    40    14    44 1   
    41    15    27 1   
    42    15    45 1   
    43    15    46 1   
    44    16    28 1   
    45    16    29 1   
    46    18    23 1   
    47    18    25 1   
    48    19    47 1   
    49    20    21 1   
    50    21    23 1   
    51    22    23 2   
    52    24    48 1   
    53    24    49 1   
@<TRIPOS>SUBSTRUCTURE
     1 WMB         1 TEMP              0 ****  ****    0 ROOT
