@<TRIPOS>MOLECULE
WMD
   32    33     1     0     0
SMALL
No Charge or Current Charge


@<TRIPOS>ATOM
      1 C10        -35.1260    24.4730    -3.7530 ca         1 WMD      -0.077000
      2 C13        -35.4490    22.1590    -5.3070 ca         1 WMD      -0.152000
      3 C01        -33.3140    24.0600    -1.3270 c3         1 WMD      -0.082100
      4 C02        -34.4560    23.0800    -1.6910 c3         1 WMD       0.246800
      5 C04        -36.5510    21.9860    -0.8810 c6         1 WMD       0.172800
      6 C05        -37.6610    21.9830     0.2220 c6         1 WMD       0.156800
      7 C07        -37.4560    24.4250     0.4280 c6         1 WMD       0.156800
      8 C08        -36.3470    24.4250    -0.6770 c6         1 WMD       0.172800
      9 C09        -34.8920    23.2080    -3.1630 ca         1 WMD      -0.151300
     10 C11        -35.5180    24.5750    -5.0990 ca         1 WMD      -0.129000
     11 C12        -35.6810    23.4200    -5.8780 ca         1 WMD      -0.082000
     12 C14        -35.0580    22.0540    -3.9630 ca         1 WMD       0.175000
     13 F15        -34.8410    20.8220    -3.4490 f          1 WMD      -0.185000
     14 N03        -35.5920    23.1280    -0.7250 n3         1 WMD      -0.738600
     15 N06        -38.3990    23.2770     0.2990 n7         1 WMD      -0.863400
     16 H1         -35.0130    25.3850    -3.1720 ha         1 WMD       0.115000
     17 H2         -35.5720    21.2600    -5.9050 ha         1 WMD       0.131000
     18 H4         -32.4650    23.9180    -2.0050 hc         1 WMD       0.040033
     19 H5         -33.6260    25.1070    -1.3890 hc         1 WMD       0.040033
     20 H6         -33.9910    22.0900    -1.5850 h1         1 WMD       0.068700
     21 H7         -37.0420    22.0330    -1.8640 h1         1 WMD       0.039950
     22 H8         -36.0130    21.0270    -0.8370 h1         1 WMD       0.039950
     23 H9         -38.3710    21.1660     0.0260 h1         1 WMD       0.035200
     24 H10        -37.1900    21.7800     1.1950 h1         1 WMD       0.035200
     25 H11        -36.9700    24.3820     1.4140 h1         1 WMD       0.035200
     26 H12        -38.0190    25.3690     0.3820 h1         1 WMD       0.035200
     27 H13        -35.6700    25.2670    -0.4780 h1         1 WMD       0.039950
     28 H14        -36.8310    24.6200    -1.6440 h1         1 WMD       0.039950
     29 H15        -35.6980    25.5550    -5.5380 ha         1 WMD       0.117000
     30 H16        -35.9850    23.5020    -6.9200 ha         1 WMD       0.117000
     31 H18        -39.0260    23.2610     1.1140 hn         1 WMD       0.410000
     32 H3         -32.9640    23.8700    -0.3050 hc         1 WMD       0.040033
@<TRIPOS>BOND
     1     1     9 ar  
     2     1    10 ar  
     3     1    16 1   
     4     2    11 ar  
     5     2    12 ar  
     6     2    17 1   
     7     3     4 1   
     8     3    18 1   
     9     3    19 1   
    10     3    32 1   
    11     4     9 1   
    12     4    14 1   
    13     4    20 1   
    14     5     6 1   
    15     5    14 1   
    16     5    21 1   
    17     5    22 1   
    18     6    15 1   
    19     6    23 1   
    20     6    24 1   
    21     7     8 1   
    22     7    15 1   
    23     7    25 1   
    24     7    26 1   
    25     8    14 1   
    26     8    27 1   
    27     8    28 1   
    28     9    12 ar  
    29    10    11 ar  
    30    10    29 1   
    31    11    30 1   
    32    12    13 1   
    33    15    31 1   
@<TRIPOS>SUBSTRUCTURE
     1 WMD         1 TEMP              0 ****  ****    0 ROOT
