@<TRIPOS>MOLECULE
WMD
   32    33     1     0     0
SMALL
bcc


@<TRIPOS>ATOM
      1 C10        -35.0730    24.4670    -3.7420 ca         1 WMD      -0.095000
      2 C13        -35.4800    22.2210    -5.3060 ca         1 WMD      -0.170000
      3 C01        -33.4180    24.0220    -1.2690 c3         1 WMD      -0.082100
      4 C02        -34.5240    23.0570    -1.6850 c3         1 WMD       0.246800
      5 C04        -36.5530    21.9860    -0.8530 c6         1 WMD       0.172800
      6 C05        -37.5340    22.0120     0.3060 c6         1 WMD       0.156800
      7 C07        -37.4080    24.3910     0.3540 c6         1 WMD       0.156800
      8 C08        -36.4290    24.3640    -0.8060 c6         1 WMD       0.172800
      9 C09        -34.8960    23.2140    -3.1530 ca         1 WMD      -0.151300
     10 C11        -35.4500    24.6080    -5.0690 ca         1 WMD      -0.147000
     11 C12        -35.6550    23.4820    -5.8550 ca         1 WMD      -0.100000
     12 C14        -35.1090    22.1180    -3.9780 ca         1 WMD       0.139900
     13 F15        -34.9410    20.8790    -3.4760 f          1 WMD      -0.149900
     14 N03        -35.6640    23.1310    -0.7750 n3         1 WMD      -0.738600
     15 N06        -38.2950    23.2460     0.2660 n7         1 WMD      -0.808200
     16 H1         -34.9080    25.3600    -3.1520 ha         1 WMD       0.133000
     17 H2         -35.6260    21.3260    -5.8970 ha         1 WMD       0.149000
     18 H4         -32.5390    23.8760    -1.8960 hc         1 WMD       0.040033
     19 H5         -33.7030    25.0710    -1.3470 hc         1 WMD       0.040033
     20 H6         -34.1170    22.0530    -1.5490 h1         1 WMD       0.068700
     21 H7         -37.1220    21.9630    -1.7980 h1         1 WMD       0.039950
     22 H8         -35.9610    21.0700    -0.8050 h1         1 WMD       0.039950
     23 H9         -38.2140    21.1620     0.2210 h1         1 WMD       0.035200
     24 H10        -36.9700    21.8910     1.2440 h1         1 WMD       0.035200
     25 H11        -36.8350    24.4130     1.2950 h1         1 WMD       0.035200
     26 H12        -37.9970    25.3090     0.3080 h1         1 WMD       0.035200
     27 H13        -35.7590    25.2220    -0.7220 h1         1 WMD       0.039950
     28 H14        -36.9910    24.4790    -1.7470 h1         1 WMD       0.039950
     29 H15        -35.5810    25.5960    -5.4900 ha         1 WMD       0.135000
     30 H16        -35.9440    23.5800    -6.8930 ha         1 WMD       0.135000
     31 H18        -38.9580    23.2660     1.0290 hn         1 WMD       0.354800
     32 H3         -33.1340    23.8310    -0.2340 hc         1 WMD       0.040033
@<TRIPOS>BOND
     1     1     9 ar  
     2     1    10 ar  
     3     1    16 1   
     4     2    11 ar  
     5     2    12 ar  
     6     2    17 1   
     7     3     4 1   
     8     3    18 1   
     9     3    19 1   
    10     3    32 1   
    11     4     9 1   
    12     4    14 1   
    13     4    20 1   
    14     5     6 1   
    15     5    14 1   
    16     5    21 1   
    17     5    22 1   
    18     6    15 1   
    19     6    23 1   
    20     6    24 1   
    21     7     8 1   
    22     7    15 1   
    23     7    25 1   
    24     7    26 1   
    25     8    14 1   
    26     8    27 1   
    27     8    28 1   
    28     9    12 ar  
    29    10    11 ar  
    30    10    29 1   
    31    11    30 1   
    32    12    13 1   
    33    15    31 1   
@<TRIPOS>SUBSTRUCTURE
     1 WMD         1 TEMP              0 ****  ****    0 ROOT
