@<TRIPOS>MOLECULE
WME
  122   131     1     0     0
SMALL
No Charge or Current Charge


@<TRIPOS>ATOM
      1 N1         -56.2320   -17.3590    88.5430 nb         1 WME      -0.209000
      2 N3         -50.7140   -16.2350    82.5780 nb         1 WME      -0.215000
      3 C4         -61.1110   -17.9490    88.4140 ca         1 WME      -0.192000
      4 C5         -59.8870   -17.7400    87.7570 ca         1 WME      -0.033000
      5 C6         -58.6660   -17.6560    88.4820 cp         1 WME      -0.173500
      6 C7         -57.3480   -17.4310    87.7820 cp         1 WME       0.184500
      7 C8         -55.0500   -17.1570    87.9230 ca         1 WME       0.109300
      8 C10        -56.1830   -17.1140    85.8070 ca         1 WME       0.108900
      9 C13        -49.5310   -16.5600    83.1230 ca         1 WME       0.167300
     10 C15        -51.7880   -16.8150    83.1470 ca         1 WME       0.185900
     11 C17        -48.0060   -17.5870    84.5970 cc         1 WME       0.062600
     12 C20        -43.4470   -17.7340    84.3530 ca         1 WME      -0.155000
     13 C21        -42.8150   -16.6050    83.8200 ca         1 WME       0.162000
     14 C22        -43.5780   -15.5690    83.2700 ca         1 WME      -0.155000
     15 C24        -47.5030   -18.2350    85.8190 ca         1 WME      -0.022800
     16 C26        -52.0480   -20.8000    85.0160 c          1 WME       0.722000
     17 C28        -46.9750   -17.4300    86.8660 ca         1 WME      -0.016300
     18 C1         -58.7400   -17.7940    89.8970 ca         1 WME      -0.033000
     19 C2         -59.9670   -18.0040    90.5500 ca         1 WME      -0.192000
     20 C3         -61.1610   -18.0820    89.8070 ca         1 WME       0.149100
     21 C9         -54.9810   -17.0250    86.5250 ca         1 WME      -0.160000
     22 N2         -57.3590   -17.3150    86.4340 nb         1 WME      -0.191000
     23 C11        -53.8010   -17.0820    88.7890 c3         1 WME       0.112300
     24 O1         -52.9640   -18.2100    88.4830 os         1 WME      -0.333100
     25 C12        -49.3960   -17.4230    84.1920 ca         1 WME      -0.207800
     26 C14        -50.5720   -18.0110    84.7090 ca         1 WME       0.454300
     27 N4         -51.7770   -17.6820    84.1800 nb         1 WME      -0.259000
     28 O2         -50.5040   -18.9140    85.7510 os         1 WME      -0.429300
     29 S1         -48.0010   -15.9230    82.5190 ss         1 WME      -0.137900
     30 C16        -47.1350   -16.8280    83.8020 cd         1 WME      -0.053600
     31 C18        -45.6460   -16.7800    83.8160 ca         1 WME      -0.023800
     32 C19        -44.8500   -17.8230    84.3470 ca         1 WME      -0.072000
     33 C23        -44.9820   -15.6580    83.2630 ca         1 WME      -0.072000
     34 C25        -51.6630   -19.7330    86.1010 c3         1 WME       0.026300
     35 O3         -53.0850   -21.4300    85.1810 o          1 WME      -0.710000
     36 O4         -51.3280   -20.9570    84.0380 o          1 WME      -0.710000
     37 C27        -50.8930   -19.4360    88.5460 ca         1 WME      -0.063300
     38 C29        -46.2670   -18.0320    87.9340 ca         1 WME       0.084000
     39 C30        -46.1710   -19.4420    88.0160 ca         1 WME       0.142100
     40 C31        -46.7590   -20.2360    87.0100 ca         1 WME       0.084000
     41 C32        -47.4140   -19.6490    85.9040 ca         1 WME      -0.016300
     42 O5         -45.4430   -20.0960    89.0020 os         1 WME      -0.342100
     43 Cl1        -45.3970   -16.9910    89.0800 cl         1 WME      -0.203000
     44 C33        -47.1080   -15.9000    86.8210 c3         1 WME      -0.052800
     45 C34        -49.6030   -19.6180    89.0790 ca         1 WME      -0.117000
     46 C35        -49.0990   -18.7340    90.0520 ca         1 WME       0.076100
     47 C36        -49.8820   -17.6520    90.4790 ca         1 WME      -0.104000
     48 C37        -51.1790   -17.4700    89.9710 ca         1 WME      -0.187000
     49 C38        -51.6940   -18.3620    89.0050 ca         1 WME       0.130100
     50 O6         -47.8240   -18.8500    90.5570 os         1 WME      -0.359100
     51 C39        -51.3850   -20.4040    87.4680 c3         1 WME      -0.020100
     52 C40        -45.6610   -19.9300    90.4300 c3         1 WME       0.182300
     53 C41        -47.1640   -20.1200    90.7510 c3         1 WME       0.129600
     54 C42        -44.7800   -20.9830    91.1630 c3         1 WME       0.175800
     55 N5         -43.3120   -20.9140    90.9060 n3         1 WME      -0.700600
     56 C43        -42.5700   -22.0470    91.5390 c6         1 WME       0.167300
     57 C44        -41.0390   -22.0050    91.2310 c6         1 WME       0.163300
     58 N6         -40.4160   -20.7070    91.6300 n3         1 WME      -0.720600
     59 C45        -41.1530   -19.5720    90.9960 c6         1 WME       0.163300
     60 C46        -42.6850   -19.6110    91.3000 c6         1 WME       0.167300
     61 C47        -38.9630   -20.6640    91.3660 c3         1 WME       0.155100
     62 O7         -62.3930   -18.2850    90.3920 os         1 WME      -0.340100
     63 C48        -62.5520   -18.4290    91.8190 c3         1 WME       0.172600
     64 C50        -64.0540   -18.6330    92.1760 c6         1 WME       0.131300
     65 O8         -64.4820   -19.9290    91.6770 os         1 WME      -0.434000
     66 C51        -65.8640   -20.2230    91.9970 c6         1 WME       0.118600
     67 C52        -66.7830   -19.1100    91.4180 c6         1 WME       0.115600
     68 O9         -66.3590   -17.8190    91.9220 os         1 WME      -0.450000
     69 C53        -64.9770   -17.5200    91.5960 c6         1 WME       0.120600
     70 H1         -62.0300   -18.0080    87.8350 ha         1 WME       0.117500
     71 H2         -59.8950   -17.6420    86.6730 ha         1 WME       0.135500
     72 H3         -56.2080   -17.0230    84.7220 h4         1 WME       0.039100
     73 H4         -52.7610   -16.5630    82.7290 h5         1 WME       0.042100
     74 H6         -43.0840   -14.6950    82.8530 ha         1 WME       0.127000
     75 H7         -57.8390   -17.7400    90.5050 ha         1 WME       0.135500
     76 H8         -59.9680   -18.1030    91.6320 ha         1 WME       0.117500
     77 H9         -54.0340   -16.8640    86.0170 ha         1 WME       0.197000
     78 H10        -53.2780   -16.1430    88.5690 h1         1 WME       0.049700
     79 H11        -54.0770   -17.0820    89.8520 h1         1 WME       0.049700
     80 H12        -45.2960   -18.7340    84.7240 ha         1 WME       0.126500
     81 H13        -45.5460   -14.8280    82.8470 ha         1 WME       0.126500
     82 H14        -52.5470   -19.0960    86.2190 h1         1 WME       0.063700
     83 H16        -47.3130   -15.4840    87.8140 hc         1 WME       0.057533
     84 H17        -46.1890   -15.4360    86.4450 hc         1 WME       0.057533
     85 H18        -47.9370   -15.5650    86.1880 hc         1 WME       0.057533
     86 H19        -48.9940   -20.4310    88.7010 ha         1 WME       0.131000
     87 H20        -49.4840   -16.9580    91.2150 ha         1 WME       0.114000
     88 H21        -51.7650   -16.6320    90.3370 ha         1 WME       0.111000
     89 H22        -52.3040   -20.8930    87.8140 hc         1 WME       0.069700
     90 H23        -50.6590   -21.2110    87.3140 hc         1 WME       0.069700
     91 H24        -45.3560   -18.9400    90.7820 h1         1 WME       0.062700
     92 H25        -47.5640   -20.9200    90.1200 h1         1 WME       0.044700
     93 H26        -47.2850   -20.4360    91.7950 h1         1 WME       0.044700
     94 H27        -44.9620   -20.8840    92.2420 h1         1 WME       0.038700
     95 H28        -45.1480   -21.9770    90.8740 h1         1 WME       0.038700
     96 H30        -42.7080   -22.0250    92.6300 h1         1 WME       0.036450
     97 H31        -42.9710   -23.0080    91.1840 h1         1 WME       0.036450
     98 H32        -40.5520   -22.8390    91.7570 h1         1 WME       0.038200
     99 H33        -40.8950   -22.1780    90.1540 h1         1 WME       0.038200
    100 H35        -41.0140   -19.5950    89.9040 h1         1 WME       0.038200
    101 H36        -40.7500   -18.6110    91.3490 h1         1 WME       0.038200
    102 H37        -43.1570   -18.7770    90.7620 h1         1 WME       0.036450
    103 H38        -42.8350   -19.4300    92.3740 h1         1 WME       0.036450
    104 H39        -38.4500   -21.4830    91.8880 h1         1 WME       0.027367
    105 H40        -38.7570   -20.7580    90.2910 h1         1 WME       0.027367
    106 H41        -38.5330   -19.7160    91.7180 h1         1 WME       0.027367
    107 H42        -61.9810   -19.2900    92.1900 h1         1 WME       0.046200
    108 H43        -62.1930   -17.5300    92.3360 h1         1 WME       0.046200
    109 H44        -47.1180   -21.1460    84.3490 hc         1 WME       0.057533
    110 H45        -48.6830   -21.2590    85.1690 hc         1 WME       0.057533
    111 H46        -48.4040   -20.0150    83.9580 hc         1 WME       0.057533
    112 H47        -64.1400   -18.6350    93.2730 h1         1 WME       0.045700
    113 H48        -66.1340   -21.1970    91.5640 h1         1 WME       0.052200
    114 H49        -65.9840   -20.2850    93.0880 h1         1 WME       0.052200
    115 H50        -66.7350   -19.1110    90.3200 h1         1 WME       0.054200
    116 H51        -67.8250   -19.2900    91.7170 h1         1 WME       0.054200
    117 H52        -64.7080   -16.5440    92.0250 h1         1 WME       0.064700
    118 H53        -64.8670   -17.4570    90.5030 h1         1 WME       0.064700
    119 Cl2        -46.6230   -22.0000    87.1240 cl         1 WME      -0.203000
    120 F1         -41.4670   -16.5210    83.8250 f          1 WME      -0.188000
    121 C49        -47.9340   -20.5570    84.7840 c3         1 WME      -0.052800
    122 H5         -42.8500   -18.5450    84.7620 ha         1 WME       0.127000
@<TRIPOS>BOND
     1     1     6 ar  
     2     1     7 ar  
     3     2     9 ar  
     4     2    10 ar  
     5     3     4 ar  
     6     3    20 ar  
     7     3    70 1   
     8     4     5 ar  
     9     4    71 1   
    10     5     6 1   
    11     5    18 ar  
    12     6    22 ar  
    13     7    21 ar  
    14     7    23 1   
    15     8    21 ar  
    16     8    22 ar  
    17     8    72 1   
    18     9    25 ar  
    19     9    29 1   
    20    10    27 ar  
    21    10    73 1   
    22    11    15 1   
    23    11    25 1   
    24    11    30 2   
    25    12    13 ar  
    26    12    32 ar  
    27    12   122 1   
    28    13    14 ar  
    29    13   120 1   
    30    14    33 ar  
    31    14    74 1   
    32    15    17 ar  
    33    15    41 ar  
    34    16    34 1   
    35    16    35 1   
    36    16    36 1   
    37    17    38 ar  
    38    17    44 1   
    39    18    19 ar  
    40    18    75 1   
    41    19    20 ar  
    42    19    76 1   
    43    20    62 1   
    44    21    77 1   
    45    23    24 1   
    46    23    78 1   
    47    23    79 1   
    48    24    49 1   
    49    25    26 ar  
    50    26    27 ar  
    51    26    28 1   
    52    28    34 1   
    53    29    30 1   
    54    30    31 1   
    55    31    32 ar  
    56    31    33 ar  
    57    32    80 1   
    58    33    81 1   
    59    34    51 1   
    60    34    82 1   
    61    37    45 ar  
    62    37    49 ar  
    63    37    51 1   
    64    38    39 ar  
    65    38    43 1   
    66    39    40 ar  
    67    39    42 1   
    68    40    41 ar  
    69    40   119 1   
    70    41   121 1   
    71    42    52 1   
    72    44    83 1   
    73    44    84 1   
    74    44    85 1   
    75    45    46 ar  
    76    45    86 1   
    77    46    47 ar  
    78    46    50 1   
    79    47    48 ar  
    80    47    87 1   
    81    48    49 ar  
    82    48    88 1   
    83    50    53 1   
    84    51    89 1   
    85    51    90 1   
    86    52    53 1   
    87    52    54 1   
    88    52    91 1   
    89    53    92 1   
    90    53    93 1   
    91    54    55 1   
    92    54    94 1   
    93    54    95 1   
    94    55    56 1   
    95    55    60 1   
    96    56    57 1   
    97    56    96 1   
    98    56    97 1   
    99    57    58 1   
   100    57    98 1   
   101    57    99 1   
   102    58    59 1   
   103    58    61 1   
   104    59    60 1   
   105    59   100 1   
   106    59   101 1   
   107    60   102 1   
   108    60   103 1   
   109    61   104 1   
   110    61   105 1   
   111    61   106 1   
   112    62    63 1   
   113    63    64 1   
   114    63   107 1   
   115    63   108 1   
   116    64    65 1   
   117    64    69 1   
   118    64   112 1   
   119    65    66 1   
   120    66    67 1   
   121    66   113 1   
   122    66   114 1   
   123    67    68 1   
   124    67   115 1   
   125    67   116 1   
   126    68    69 1   
   127    69   117 1   
   128    69   118 1   
   129   109   121 1   
   130   110   121 1   
   131   111   121 1   
@<TRIPOS>SUBSTRUCTURE
     1 WME         1 TEMP              0 ****  ****    0 ROOT
