@<TRIPOS>MOLECULE
WME
  122   131     1     0     0
SMALL
abcg2


@<TRIPOS>ATOM
      1 N1         -56.5350   -18.9840    88.6770 nb         1 WME      -0.209000
      2 N3         -50.3400   -15.9480    82.4150 nb         1 WME      -0.215000
      3 C4         -61.3480   -18.8550    88.7510 ca         1 WME      -0.192000
      4 C5         -60.1650   -19.1380    88.1020 ca         1 WME      -0.033000
      5 C6         -58.9310   -18.9010    88.7160 cp         1 WME      -0.173500
      6 C7         -57.6680   -19.2150    88.0250 cp         1 WME       0.184500
      7 C8         -55.3910   -19.2710    88.0710 ca         1 WME       0.109300
      8 C10        -56.5980   -19.9980    86.1920 ca         1 WME       0.108900
      9 C13        -49.1960   -16.2390    83.0280 ca         1 WME       0.167300
     10 C15        -51.3800   -16.5900    82.9000 ca         1 WME       0.185900
     11 C17        -47.6880   -17.1990    84.5670 cc         1 WME       0.062600
     12 C20        -43.1930   -16.9860    84.4190 ca         1 WME      -0.155000
     13 C21        -42.7340   -15.6820    84.4330 ca         1 WME       0.162000
     14 C22        -43.5780   -14.6050    84.2430 ca         1 WME      -0.155000
     15 C24        -47.1860   -17.8890    85.7790 ca         1 WME      -0.022800
     16 C26        -51.6980   -20.3780    84.2450 c          1 WME       0.722000
     17 C28        -46.8470   -17.1000    86.8900 ca         1 WME      -0.016300
     18 C1         -58.9310   -18.3670    90.0020 ca         1 WME      -0.033000
     19 C2         -60.1120   -18.0750    90.6670 ca         1 WME      -0.192000
     20 C3         -61.3340   -18.3210    90.0430 ca         1 WME       0.149100
     21 C9         -55.3630   -19.7980    86.7870 ca         1 WME      -0.160000
     22 N2         -57.7430   -19.7150    86.7930 nb         1 WME      -0.191000
     23 C11        -54.1630   -18.9750    88.8810 c3         1 WME       0.112300
     24 O1         -53.0420   -19.4220    88.1730 os         1 WME      -0.333100
     25 C12        -49.0410   -17.1390    84.0860 ca         1 WME      -0.207800
     26 C14        -50.2290   -17.8140    84.4410 ca         1 WME       0.454300
     27 N4         -51.3750   -17.5000    83.8690 nb         1 WME      -0.259000
     28 O2         -50.1840   -18.7530    85.3570 os         1 WME      -0.429300
     29 S1         -47.6930   -15.5270    82.5780 ss         1 WME      -0.137900
     30 C16        -46.8630   -16.3930    83.8380 cd         1 WME      -0.053600
     31 C18        -45.4310   -16.1500    84.0340 ca         1 WME      -0.023800
     32 C19        -44.5440   -17.2120    84.2140 ca         1 WME      -0.072000
     33 C23        -44.9280   -14.8480    84.0450 ca         1 WME      -0.072000
     34 C25        -51.3460   -19.5790    85.5250 c3         1 WME       0.026300
     35 O3         -52.8450   -20.8630    84.2580 o          1 WME      -0.710000
     36 O4         -50.8210   -20.4960    83.3760 o          1 WME      -0.710000
     37 C27        -50.7660   -19.8740    87.9750 ca         1 WME      -0.063300
     38 C29        -46.1830   -17.7100    87.9480 ca         1 WME       0.084000
     39 C30        -45.9060   -19.0730    87.9690 ca         1 WME       0.142100
     40 C31        -46.3130   -19.8260    86.8700 ca         1 WME       0.084000
     41 C32        -46.9310   -19.2630    85.7570 ca         1 WME      -0.016300
     42 O5         -45.1880   -19.6620    88.9380 os         1 WME      -0.342100
     43 CL1        -45.6080   -16.7490    89.2660 cl         1 WME      -0.203000
     44 C33        -47.1520   -15.6330    86.9550 c3         1 WME      -0.052800
     45 C34        -49.4780   -19.7990    88.4740 ca         1 WME      -0.117000
     46 C35        -49.2030   -19.1700    89.6850 ca         1 WME       0.076100
     47 C36        -50.2410   -18.6060    90.4060 ca         1 WME      -0.104000
     48 C37        -51.5440   -18.6660    89.9210 ca         1 WME      -0.187000
     49 C38        -51.8090   -19.3020    88.7160 ca         1 WME       0.130100
     50 O6         -47.9310   -19.0470    90.1550 os         1 WME      -0.359100
     51 C39        -51.0310   -20.5460    86.6600 c3         1 WME      -0.020100
     52 C40        -45.6930   -19.8710    90.2650 c3         1 WME       0.182300
     53 C41        -47.1650   -20.2290    90.3100 c3         1 WME       0.129600
     54 C42        -44.8650   -21.0060    90.8510 c3         1 WME       0.175800
     55 N5         -43.4400   -20.7840    90.7650 n3         1 WME      -0.700600
     56 C43        -42.7010   -22.0010    91.0430 c6         1 WME       0.167300
     57 C44        -41.2120   -21.7760    90.8630 c6         1 WME       0.163300
     58 N6         -40.7480   -20.7110    91.7260 n3         1 WME      -0.720600
     59 C45        -41.4850   -19.4950    91.4500 c6         1 WME       0.163300
     60 C46        -42.9760   -19.7110    91.6240 c6         1 WME       0.167300
     61 C47        -39.3230   -20.5110    91.6140 c3         1 WME       0.155100
     62 O7         -62.5320   -18.0840    90.5980 os         1 WME      -0.340100
     63 C48        -62.5940   -17.5490    91.9070 c3         1 WME       0.172600
     64 C50        -64.0440   -17.3850    92.2980 c6         1 WME       0.131300
     65 O8         -64.6480   -18.6610    92.3310 os         1 WME      -0.434000
     66 C51        -66.0080   -18.5800    92.7070 c6         1 WME       0.118600
     67 C52        -66.7650   -17.6480    91.7830 c6         1 WME       0.115600
     68 O9         -66.1690   -16.3680    91.7720 os         1 WME      -0.450000
     69 C53        -64.8180   -16.4510    91.3740 c6         1 WME       0.120600
     70 H1         -62.2960   -19.0440    88.2640 ha         1 WME       0.117500
     71 H2         -60.1960   -19.5520    87.1040 ha         1 WME       0.135500
     72 H3         -56.6620   -20.4050    85.1890 h4         1 WME       0.039100
     73 H4         -52.3450   -16.3640    82.4590 h5         1 WME       0.042100
     74 H6         -43.1920   -13.5940    84.2560 ha         1 WME       0.127000
     75 H7         -57.9910   -18.1730    90.4990 ha         1 WME       0.135500
     76 H8         -60.0600   -17.6610    91.6640 ha         1 WME       0.117500
     77 H9         -54.4530   -20.0440    86.2590 ha         1 WME       0.197000
     78 H10        -54.1190   -17.8950    89.0720 h1         1 WME       0.049700
     79 H11        -54.2520   -19.4720    89.8540 h1         1 WME       0.049700
     80 H12        -44.9040   -18.2320    84.1770 ha         1 WME       0.126500
     81 H13        -45.5950   -14.0050    83.9150 ha         1 WME       0.126500
     82 H14        -52.1960   -18.9480    85.7940 h1         1 WME       0.063700
     83 H16        -47.6180   -15.3790    87.9070 hc         1 WME       0.057533
     84 H17        -46.2430   -15.0340    86.8720 hc         1 WME       0.057533
     85 H18        -47.8270   -15.3220    86.1630 hc         1 WME       0.057533
     86 H19        -48.6800   -20.2420    87.8940 ha         1 WME       0.131000
     87 H20        -50.0410   -18.1120    91.3490 ha         1 WME       0.114000
     88 H21        -52.3370   -18.2190    90.5070 ha         1 WME       0.111000
     89 H22        -51.8770   -21.2290    86.7490 hc         1 WME       0.069700
     90 H23        -50.1650   -21.1550    86.3840 hc         1 WME       0.069700
     91 H24        -45.5500   -18.9600    90.8540 h1         1 WME       0.062700
     92 H25        -47.3960   -20.9770    89.5450 h1         1 WME       0.044700
     93 H26        -47.3870   -20.6820    91.2830 h1         1 WME       0.044700
     94 H27        -45.2000   -21.1570    91.8910 h1         1 WME       0.038700
     95 H28        -45.1030   -21.9260    90.3090 h1         1 WME       0.038700
     96 H30        -42.8890   -22.3680    92.0670 h1         1 WME       0.036450
     97 H31        -43.0290   -22.7840    90.3550 h1         1 WME       0.036450
     98 H32        -40.6800   -22.6980    91.1100 h1         1 WME       0.038200
     99 H33        -41.0070   -21.5580    89.8000 h1         1 WME       0.038200
    100 H35        -41.2920   -19.1260    90.4270 h1         1 WME       0.038200
    101 H36        -41.1580   -18.7120    92.1390 h1         1 WME       0.038200
    102 H37        -43.4850   -18.7800    91.3670 h1         1 WME       0.036450
    103 H38        -43.1940   -19.9200    92.6850 h1         1 WME       0.036450
    104 H39        -38.7950   -21.4310    91.8690 h1         1 WME       0.027367
    105 H40        -39.0040   -20.2110    90.6030 h1         1 WME       0.027367
    106 H41        -38.9970   -19.7350    92.3080 h1         1 WME       0.027367
    107 H42        -62.0960   -18.2140    92.6210 h1         1 WME       0.046200
    108 H43        -62.0990   -16.5730    91.9570 h1         1 WME       0.046200
    109 H44        -46.3890   -20.6490    84.2140 hc         1 WME       0.057533
    110 H45        -48.0210   -20.8640    84.8270 hc         1 WME       0.057533
    111 H46        -47.6600   -19.5250    83.7490 hc         1 WME       0.057533
    112 H47        -64.0450   -16.9410    93.3070 h1         1 WME       0.045700
    113 H48        -66.4240   -19.5870    92.6540 h1         1 WME       0.052200
    114 H49        -66.0990   -18.2300    93.7450 h1         1 WME       0.052200
    115 H50        -66.7910   -18.0710    90.7690 h1         1 WME       0.054200
    116 H51        -67.7950   -17.5310    92.1260 h1         1 WME       0.054200
    117 H52        -64.3970   -15.4440    91.4270 h1         1 WME       0.064700
    118 H53        -64.7460   -16.7960    90.3340 h1         1 WME       0.064700
    119 CL2        -45.9910   -21.5260    86.9030 cl         1 WME      -0.203000
    120 F1         -41.4280   -15.4580    84.6290 f          1 WME      -0.188000
    121 C49        -47.2700   -20.1150    84.5730 c3         1 WME      -0.052800
    122 H5         -42.5080   -17.8120    84.5550 ha         1 WME       0.127000
@<TRIPOS>BOND
     1     1     6 ar  
     2     1     7 ar  
     3     2     9 ar  
     4     2    10 ar  
     5     3     4 ar  
     6     3    20 ar  
     7     3    70 1   
     8     4     5 ar  
     9     4    71 1   
    10     5     6 1   
    11     5    18 ar  
    12     6    22 ar  
    13     7    21 ar  
    14     7    23 1   
    15     8    21 ar  
    16     8    22 ar  
    17     8    72 1   
    18     9    25 ar  
    19     9    29 1   
    20    10    27 ar  
    21    10    73 1   
    22    11    15 1   
    23    11    25 1   
    24    11    30 2   
    25    12    13 ar  
    26    12    32 ar  
    27    12   122 1   
    28    13    14 ar  
    29    13   120 1   
    30    14    33 ar  
    31    14    74 1   
    32    15    17 ar  
    33    15    41 ar  
    34    16    34 1   
    35    16    35 1   
    36    16    36 1   
    37    17    38 ar  
    38    17    44 1   
    39    18    19 ar  
    40    18    75 1   
    41    19    20 ar  
    42    19    76 1   
    43    20    62 1   
    44    21    77 1   
    45    23    24 1   
    46    23    78 1   
    47    23    79 1   
    48    24    49 1   
    49    25    26 ar  
    50    26    27 ar  
    51    26    28 1   
    52    28    34 1   
    53    29    30 1   
    54    30    31 1   
    55    31    32 ar  
    56    31    33 ar  
    57    32    80 1   
    58    33    81 1   
    59    34    51 1   
    60    34    82 1   
    61    37    45 ar  
    62    37    49 ar  
    63    37    51 1   
    64    38    39 ar  
    65    38    43 1   
    66    39    40 ar  
    67    39    42 1   
    68    40    41 ar  
    69    40   119 1   
    70    41   121 1   
    71    42    52 1   
    72    44    83 1   
    73    44    84 1   
    74    44    85 1   
    75    45    46 ar  
    76    45    86 1   
    77    46    47 ar  
    78    46    50 1   
    79    47    48 ar  
    80    47    87 1   
    81    48    49 ar  
    82    48    88 1   
    83    50    53 1   
    84    51    89 1   
    85    51    90 1   
    86    52    53 1   
    87    52    54 1   
    88    52    91 1   
    89    53    92 1   
    90    53    93 1   
    91    54    55 1   
    92    54    94 1   
    93    54    95 1   
    94    55    56 1   
    95    55    60 1   
    96    56    57 1   
    97    56    96 1   
    98    56    97 1   
    99    57    58 1   
   100    57    98 1   
   101    57    99 1   
   102    58    59 1   
   103    58    61 1   
   104    59    60 1   
   105    59   100 1   
   106    59   101 1   
   107    60   102 1   
   108    60   103 1   
   109    61   104 1   
   110    61   105 1   
   111    61   106 1   
   112    62    63 1   
   113    63    64 1   
   114    63   107 1   
   115    63   108 1   
   116    64    65 1   
   117    64    69 1   
   118    64   112 1   
   119    65    66 1   
   120    66    67 1   
   121    66   113 1   
   122    66   114 1   
   123    67    68 1   
   124    67   115 1   
   125    67   116 1   
   126    68    69 1   
   127    69   117 1   
   128    69   118 1   
   129   109   121 1   
   130   110   121 1   
   131   111   121 1   
@<TRIPOS>SUBSTRUCTURE
     1 WME         1 TEMP              0 ****  ****    0 ROOT
