@<TRIPOS>MOLECULE
WMF
   37    39     1     0     0
SMALL
abcg2


@<TRIPOS>ATOM
      1 O1           5.1070     4.2160    15.6230 oh         1 WMF      -0.525100
      2 C2           5.3760     5.2400    16.4630 cc         1 WMF       0.218100
      3 C3           4.8180     6.4640    16.2080 cd         1 WMF      -0.373200
      4 C4           5.0460     7.5880    17.0560 c          1 WMF       0.573200
      5 N5           5.8490     7.3350    18.1860 n          1 WMF      -0.279000
      6 C6           6.4150     6.1220    18.4100 cd         1 WMF       0.003600
      7 C7           6.2170     5.0600    17.5900 cc         1 WMF      -0.373000
      8 O8           4.5900     8.7250    16.8570 o          1 WMF      -0.563000
      9 C9           6.0820     8.4190    19.1570 c3         1 WMF       0.132300
     10 C10          5.6820     8.0360    20.5560 ca         1 WMF      -0.122300
     11 C11          6.6310     7.9460    21.5740 ca         1 WMF      -0.096000
     12 C12          6.2670     7.5950    22.8690 ca         1 WMF      -0.116000
     13 C13          4.9340     7.3290    23.1640 ca         1 WMF      -0.090000
     14 C14          3.9710     7.4170    22.1660 ca         1 WMF      -0.124000
     15 C15          4.3510     7.7670    20.8780 ca         1 WMF       0.123100
     16 O17          3.3860     7.9270    19.8980 os         1 WMF      -0.256200
     17 C18          2.8100     6.8190    19.3160 ca         1 WMF       0.129100
     18 C19          1.7610     7.0700    18.4360 ca         1 WMF      -0.152000
     19 C20          1.1550     6.0130    17.7730 ca         1 WMF      -0.080000
     20 C21          1.5890     4.7050    17.9830 ca         1 WMF      -0.136000
     21 C22          2.6350     4.4690    18.8670 ca         1 WMF      -0.080000
     22 C23          3.2500     5.5200    19.5410 ca         1 WMF      -0.152000
     23 H24          5.5610     3.4120    15.9100 ho         1 WMF       0.467000
     24 H25          4.1780     6.6100    15.3490 ha         1 WMF       0.222000
     25 H26          7.0250     6.0450    19.2990 h4         1 WMF       0.200000
     26 H27          6.6760     4.1060    17.8050 ha         1 WMF       0.196000
     27 H28          7.1380     8.6880    19.1360 h1         1 WMF       0.084700
     28 H29          5.5030     9.2650    18.7980 h1         1 WMF       0.084700
     29 H30          7.6690     8.1520    21.3390 ha         1 WMF       0.115000
     30 H31          7.0200     7.5300    23.6430 ha         1 WMF       0.120000
     31 H1           4.6410     7.0570    24.1700 ha         1 WMF       0.120000
     32 H32          2.9280     7.2190    22.3730 ha         1 WMF       0.133000
     33 H33          1.4430     8.0920    18.2730 ha         1 WMF       0.127000
     34 H34          0.3430     6.2120    17.0850 ha         1 WMF       0.112500
     35 H35          1.1190     3.8830    17.4610 ha         1 WMF       0.115000
     36 H36          2.9890     3.4590    19.0340 ha         1 WMF       0.112500
     37 H37          4.0710     5.3280    20.2160 ha         1 WMF       0.127000
@<TRIPOS>BOND
     1     1     2 1   
     2     1    23 1   
     3     2     3 2   
     4     2     7 1   
     5     3     4 1   
     6     3    24 1   
     7     4     5 1   
     8     4     8 2   
     9     5     6 1   
    10     5     9 1   
    11     6     7 2   
    12     6    25 1   
    13     7    26 1   
    14     9    10 1   
    15     9    27 1   
    16     9    28 1   
    17    10    11 ar  
    18    10    15 ar  
    19    11    12 ar  
    20    11    29 1   
    21    12    13 ar  
    22    12    30 1   
    23    13    14 ar  
    24    13    31 1   
    25    14    15 ar  
    26    14    32 1   
    27    15    16 1   
    28    16    17 1   
    29    17    18 ar  
    30    17    22 ar  
    31    18    19 ar  
    32    18    33 1   
    33    19    20 ar  
    34    19    34 1   
    35    20    21 ar  
    36    20    35 1   
    37    21    22 ar  
    38    21    36 1   
    39    22    37 1   
@<TRIPOS>SUBSTRUCTURE
     1 WMF         1 TEMP              0 ****  ****    0 ROOT
