@<TRIPOS>MOLECULE
WMF
   37    39     1     0     0
SMALL
No Charge or Current Charge


@<TRIPOS>ATOM
      1 O1           5.3170     4.0420    15.6020 oh         1 WMF      -0.525100
      2 C2           5.4240     5.1050    16.4070 cc         1 WMF       0.218100
      3 C3           4.8400     6.3000    16.1140 cd         1 WMF      -0.373200
      4 C4           4.9480     7.4750    16.9860 c          1 WMF       0.573200
      5 N5           5.6940     7.2840    18.1750 n          1 WMF      -0.279000
      6 C6           6.3100     6.0630    18.4530 cd         1 WMF       0.003600
      7 C7           6.1850     4.9860    17.6020 cc         1 WMF      -0.373000
      8 O8           4.4290     8.5400    16.6810 o          1 WMF      -0.563000
      9 C9           5.8180     8.4110    19.1360 c3         1 WMF       0.132300
     10 C10          5.5600     8.0280    20.5940 ca         1 WMF      -0.122300
     11 C11          6.6430     7.8950    21.4870 ca         1 WMF      -0.096000
     12 C12          6.4190     7.5480    22.8300 ca         1 WMF      -0.116000
     13 C13          5.1110     7.3380    23.2970 ca         1 WMF      -0.090000
     14 C14          4.0250     7.4740    22.4160 ca         1 WMF      -0.124000
     15 C15          4.2470     7.8130    21.0700 ca         1 WMF       0.123100
     16 O17          3.1670     7.9420    20.2300 os         1 WMF      -0.256200
     17 C18          2.7060     6.9050    19.4470 ca         1 WMF       0.129100
     18 C19          1.7650     7.1920    18.4450 ca         1 WMF      -0.152000
     19 C20          1.2860     6.1700    17.6070 ca         1 WMF      -0.080000
     20 C21          1.7480     4.8530    17.7750 ca         1 WMF      -0.136000
     21 C22          2.6840     4.5580    18.7800 ca         1 WMF      -0.080000
     22 C23          3.1620     5.5800    19.6190 ca         1 WMF      -0.152000
     23 H24          5.8220     3.3200    16.0280 ho         1 WMF       0.467000
     24 H25          4.2590     6.4450    15.2150 ha         1 WMF       0.222000
     25 H26          6.8760     6.0440    19.3810 h4         1 WMF       0.200000
     26 H27          6.6660     4.0440    17.8470 ha         1 WMF       0.196000
     27 H28          6.8280     8.8300    19.0410 h1         1 WMF       0.084700
     28 H29          5.1210     9.2170    18.8740 h1         1 WMF       0.084700
     29 H30          7.6620     8.0590    21.1400 ha         1 WMF       0.115000
     30 H31          7.2610     7.4460    23.5120 ha         1 WMF       0.120000
     31 H1           4.9390     7.0730    24.3380 ha         1 WMF       0.120000
     32 H32          3.0110     7.3140    22.7730 ha         1 WMF       0.133000
     33 H33          1.4150     8.2130    18.3110 ha         1 WMF       0.127000
     34 H34          0.5620     6.3990    16.8280 ha         1 WMF       0.112500
     35 H35          1.3820     4.0620    17.1240 ha         1 WMF       0.115000
     36 H36          3.0420     3.5380    18.9070 ha         1 WMF       0.112500
     37 H37          3.8900     5.3350    20.3870 ha         1 WMF       0.127000
@<TRIPOS>BOND
     1     1     2 1   
     2     1    23 1   
     3     2     3 2   
     4     2     7 1   
     5     3     4 1   
     6     3    24 1   
     7     4     5 1   
     8     4     8 2   
     9     5     6 1   
    10     5     9 1   
    11     6     7 2   
    12     6    25 1   
    13     7    26 1   
    14     9    10 1   
    15     9    27 1   
    16     9    28 1   
    17    10    11 ar  
    18    10    15 ar  
    19    11    12 ar  
    20    11    29 1   
    21    12    13 ar  
    22    12    30 1   
    23    13    14 ar  
    24    13    31 1   
    25    14    15 ar  
    26    14    32 1   
    27    15    16 1   
    28    16    17 1   
    29    17    18 ar  
    30    17    22 ar  
    31    18    19 ar  
    32    18    33 1   
    33    19    20 ar  
    34    19    34 1   
    35    20    21 ar  
    36    20    35 1   
    37    21    22 ar  
    38    21    36 1   
    39    22    37 1   
@<TRIPOS>SUBSTRUCTURE
     1 WMF         1 TEMP              0 ****  ****    0 ROOT
