@<TRIPOS>MOLECULE
WMG
   32    33     1     0     0
SMALL
No Charge or Current Charge


@<TRIPOS>ATOM
      1 C10        -28.6790    -7.0400   -21.8200 ca         1 WMG      -0.067000
      2 C13        -26.2960    -7.7660   -20.5250 ca         1 WMG      -0.155000
      3 C01        -30.5380    -9.5560   -21.5090 c3         1 WMG      -0.090100
      4 C02        -30.0570    -8.6240   -20.3700 c3         1 WMG       0.238800
      5 C04        -30.5550    -6.6750   -18.8940 c6         1 WMG       0.165800
      6 C05        -31.5880    -5.5680   -18.5030 c6         1 WMG       0.155300
      7 C07        -33.4250    -7.0510   -19.1690 c6         1 WMG       0.155300
      8 C08        -32.3900    -8.1570   -19.5640 c6         1 WMG       0.165800
      9 C09        -28.7190    -7.9940   -20.7800 ca         1 WMG      -0.122300
     10 C11        -27.4600    -6.4550   -22.2070 ca         1 WMG      -0.132000
     11 C12        -26.2670    -6.8170   -21.5600 ca         1 WMG      -0.086000
     12 C14        -27.5130    -8.3510   -20.1380 ca         1 WMG       0.167000
     13 F15        -27.5070    -9.2630   -19.1400 f          1 WMG      -0.185000
     14 N03        -31.0590    -7.5910   -19.9750 n3         1 WMG      -0.731600
     15 N06        -32.9110    -6.1320   -18.1160 n7         1 WMG      -0.861400
     16 H1         -29.5980    -6.7470   -22.3240 ha         1 WMG       0.134000
     17 H2         -25.3760    -8.0510   -20.0210 ha         1 WMG       0.130000
     18 H4         -30.8790    -8.9750   -22.3740 hc         1 WMG       0.042367
     19 H5         -29.7200   -10.2090   -21.8350 hc         1 WMG       0.042367
     20 H6         -29.8790    -9.2700   -19.5000 h1         1 WMG       0.040700
     21 H7         -30.3090    -7.2580   -17.9940 h1         1 WMG       0.040700
     22 H8         -29.6290    -6.1710   -19.2080 h1         1 WMG       0.040700
     23 H9         -31.1860    -4.9690   -17.6730 h1         1 WMG       0.035450
     24 H10        -31.7220    -4.8920   -19.3610 h1         1 WMG       0.035450
     25 H11        -33.6740    -6.4650   -20.0670 h1         1 WMG       0.035450
     26 H12        -34.3540    -7.5260   -18.8200 h1         1 WMG       0.035450
     27 H13        -32.8340    -8.7440   -20.3790 h1         1 WMG       0.040700
     28 H14        -32.2620    -8.8380   -18.7090 h1         1 WMG       0.040700
     29 H15        -27.4420    -5.7190   -23.0080 ha         1 WMG       0.117000
     30 H16        -25.3240    -6.3630   -21.8600 ha         1 WMG       0.116000
     31 H18        -33.5800    -5.3630   -17.9830 hn         1 WMG       0.411000
     32 H3         -31.3570   -10.2030   -21.1760 hc         1 WMG       0.042367
@<TRIPOS>BOND
     1     1     9 ar  
     2     1    10 ar  
     3     1    16 1   
     4     2    11 ar  
     5     2    12 ar  
     6     2    17 1   
     7     3     4 1   
     8     3    18 1   
     9     3    19 1   
    10     3    32 1   
    11     4     9 1   
    12     4    14 1   
    13     4    20 1   
    14     5     6 1   
    15     5    14 1   
    16     5    21 1   
    17     5    22 1   
    18     6    15 1   
    19     6    23 1   
    20     6    24 1   
    21     7     8 1   
    22     7    15 1   
    23     7    25 1   
    24     7    26 1   
    25     8    14 1   
    26     8    27 1   
    27     8    28 1   
    28     9    12 ar  
    29    10    11 ar  
    30    10    29 1   
    31    11    30 1   
    32    12    13 1   
    33    15    31 1   
@<TRIPOS>SUBSTRUCTURE
     1 WMG         1 TEMP              0 ****  ****    0 ROOT
