@<TRIPOS>MOLECULE
WMG
   32    33     1     0     0
SMALL
abcg2


@<TRIPOS>ATOM
      1 C10        -28.7930    -6.8630   -21.5320 ca         1 WMG      -0.067000
      2 C13        -26.3100    -7.8800   -20.8410 ca         1 WMG      -0.155000
      3 C01        -30.4650    -9.6270   -21.2110 c3         1 WMG      -0.090100
      4 C02        -30.0060    -8.6140   -20.1600 c3         1 WMG       0.238800
      5 C04        -30.6070    -6.7570   -18.7600 c6         1 WMG       0.165800
      6 C05        -31.5840    -5.6130   -18.5680 c6         1 WMG       0.155300
      7 C07        -33.3260    -6.9670   -19.4520 c6         1 WMG       0.155300
      8 C08        -32.3460    -8.1120   -19.6500 c6         1 WMG       0.165800
      9 C09        -28.7380    -7.9550   -20.6680 ca         1 WMG      -0.122300
     10 C11        -27.6410    -6.2800   -22.0400 ca         1 WMG      -0.132000
     11 C12        -26.3960    -6.7880   -21.6920 ca         1 WMG      -0.086000
     12 C14        -27.4780    -8.4370   -20.3540 ca         1 WMG       0.167000
     13 F15        -27.3720    -9.5030   -19.5360 f          1 WMG      -0.185000
     14 N03        -31.0080    -7.5930   -19.8810 n3         1 WMG      -0.731600
     15 N06        -32.9120    -6.1460   -18.3320 n7         1 WMG      -0.861400
     16 H1         -29.7650    -6.4600   -21.7860 ha         1 WMG       0.134000
     17 H2         -25.3520    -8.2970   -20.5590 ha         1 WMG       0.130000
     18 H4         -30.8040    -9.1190   -22.1160 hc         1 WMG       0.042367
     19 H5         -29.6350   -10.2790   -21.4800 hc         1 WMG       0.042367
     20 H6         -29.7740    -9.1760   -19.2410 h1         1 WMG       0.040700
     21 H7         -30.5420    -7.3440   -17.8270 h1         1 WMG       0.040700
     22 H8         -29.6150    -6.3440   -18.9480 h1         1 WMG       0.040700
     23 H9         -31.2730    -5.0150   -17.7090 h1         1 WMG       0.035450
     24 H10        -31.5360    -4.9650   -19.4570 h1         1 WMG       0.035450
     25 H11        -33.3880    -6.4000   -20.3950 h1         1 WMG       0.035450
     26 H12        -34.3180    -7.3790   -19.2550 h1         1 WMG       0.035450
     27 H13        -32.6790    -8.6890   -20.5110 h1         1 WMG       0.040700
     28 H14        -32.3820    -8.7790   -18.7710 h1         1 WMG       0.040700
     29 H15        -27.7150    -5.4300   -22.7040 ha         1 WMG       0.117000
     30 H16        -25.4910    -6.3380   -22.0780 ha         1 WMG       0.116000
     31 H18        -33.5690    -5.3870   -18.2030 hn         1 WMG       0.411000
     32 H3         -31.2700   -10.2640   -20.8450 hc         1 WMG       0.042367
@<TRIPOS>BOND
     1     1     9 ar  
     2     1    10 ar  
     3     1    16 1   
     4     2    11 ar  
     5     2    12 ar  
     6     2    17 1   
     7     3     4 1   
     8     3    18 1   
     9     3    19 1   
    10     3    32 1   
    11     4     9 1   
    12     4    14 1   
    13     4    20 1   
    14     5     6 1   
    15     5    14 1   
    16     5    21 1   
    17     5    22 1   
    18     6    15 1   
    19     6    23 1   
    20     6    24 1   
    21     7     8 1   
    22     7    15 1   
    23     7    25 1   
    24     7    26 1   
    25     8    14 1   
    26     8    27 1   
    27     8    28 1   
    28     9    12 ar  
    29    10    11 ar  
    30    10    29 1   
    31    11    30 1   
    32    12    13 1   
    33    15    31 1   
@<TRIPOS>SUBSTRUCTURE
     1 WMG         1 TEMP              0 ****  ****    0 ROOT
