@<TRIPOS>MOLECULE
WMH
   11    11     1     0     0
SMALL
No Charge or Current Charge


@<TRIPOS>ATOM
      1 N          -44.1710    11.9280   -26.6460 na         1 WMH       0.126800
      2 C          -44.4390    10.6220   -27.2600 c3         1 WMH       0.061900
      3 C1         -42.9520    12.5200   -26.4360 cc         1 WMH      -0.220000
      4 C2         -43.2710    13.7080   -25.8430 cd         1 WMH       0.191900
      5 N1         -44.6430    13.7950   -25.7160 nd         1 WMH      -0.358000
      6 N2         -45.1910    12.7150   -26.2040 nc         1 WMH      -0.207800
      7 H1         -45.0630    10.7570   -28.1510 h1         1 WMH       0.063700
      8 H2         -43.4930    10.1480   -27.5490 h1         1 WMH       0.063700
      9 H3         -44.9620     9.9800   -26.5420 h1         1 WMH       0.063700
     10 H4         -42.0040    12.0760   -26.7090 h4         1 WMH       0.165000
     11 H5         -42.6080    14.4940   -25.5040 h4         1 WMH       0.049100
@<TRIPOS>BOND
     1     1     2 1   
     2     1     3 1   
     3     1     6 1   
     4     2     7 1   
     5     2     8 1   
     6     2     9 1   
     7     3     4 2   
     8     3    10 1   
     9     4     5 1   
    10     4    11 1   
    11     5     6 2   
@<TRIPOS>SUBSTRUCTURE
     1 WMH         1 TEMP              0 ****  ****    0 ROOT
