@<TRIPOS>MOLECULE
WMH
   11    11     1     0     0
SMALL
abcg2


@<TRIPOS>ATOM
      1 N          -44.1520    11.9530   -26.7110 na         1 WMH       0.126800
      2 C          -44.4260    10.6490   -27.2740 c3         1 WMH       0.061900
      3 C1         -42.9870    12.4250   -26.2390 cc         1 WMH      -0.220000
      4 C2         -43.2910    13.6940   -25.8190 cd         1 WMH       0.191900
      5 N1         -44.6010    13.9120   -26.0570 nd         1 WMH      -0.358000
      6 N2         -45.1100    12.8550   -26.5940 nc         1 WMH      -0.207800
      7 H1         -45.4600    10.6290   -27.6020 h1         1 WMH       0.063700
      8 H2         -43.7750    10.4630   -28.1240 h1         1 WMH       0.063700
      9 H3         -44.2700     9.8750   -26.5260 h1         1 WMH       0.063700
     10 H4         -42.0760    11.8520   -26.2410 h4         1 WMH       0.165000
     11 H5         -42.6500    14.4360   -25.3730 h4         1 WMH       0.049100
@<TRIPOS>BOND
     1     1     2 1   
     2     1     3 1   
     3     1     6 1   
     4     2     7 1   
     5     2     8 1   
     6     2     9 1   
     7     3     4 2   
     8     3    10 1   
     9     4     5 1   
    10     4    11 1   
    11     5     6 2   
@<TRIPOS>SUBSTRUCTURE
     1 WMH         1 TEMP              0 ****  ****    0 ROOT
