@<TRIPOS>MOLECULE
WMJ
   48    50     1     0     0
SMALL
No Charge or Current Charge


@<TRIPOS>ATOM
      1 OAD          5.8450     0.2880     1.4060 o          1 WMJ      -0.559000
      2 CAX          5.0080     0.8450     0.7140 c          1 WMJ       0.625000
      3 NAQ          5.2170     2.1070     0.2610 ns         1 WMJ      -0.466500
      4 CAW          4.4040     2.8710    -0.5150 c          1 WMJ       0.586200
      5 OAC          4.7300     3.9990    -0.8460 o          1 WMJ      -0.521000
      6 CAT          3.1340     2.2100    -0.8960 cc         1 WMJ      -0.257400
      7 CAA          2.1940     3.0210    -1.7570 c3         1 WMJ      -0.021900
      8 CAL          2.8710     0.9280    -0.4620 cd         1 WMJ      -0.010400
      9 NBC          3.7950     0.2450     0.3320 n          1 WMJ      -0.318000
     10 CBA          3.5200    -1.1330     0.8120 c5         1 WMJ       0.336700
     11 OAR          2.1100    -1.3410     1.0700 os         1 WMJ      -0.469000
     12 CAN          3.8990    -2.1080    -0.3410 c5         1 WMJ      -0.166400
     13 CAY          2.8910    -3.2490    -0.0810 c5         1 WMJ       0.145300
     14 OAE          2.7580    -4.1110    -1.2120 oh         1 WMJ      -0.695000
     15 CAZ          1.6300    -2.3810     0.1820 c5         1 WMJ       0.134300
     16 CAM          0.4290    -3.1260     0.8150 c3         1 WMJ       0.122000
     17 NAO         -0.6960    -2.2570     1.1940 ns         1 WMJ      -0.513900
     18 CAS         -1.4830    -1.5690     0.3010 c          1 WMJ       0.664100
     19 OAB         -1.3480    -1.6850    -0.9080 o          1 WMJ      -0.609100
     20 NAP         -2.4180    -0.7650     0.9300 ns         1 WMJ      -0.158000
     21 CAU         -3.4050     0.1240     0.4240 ca         1 WMJ       0.052000
     22 CAI         -4.2730     0.7280     1.3500 ca         1 WMJ      -0.179500
     23 CAK         -5.2730     1.6210     0.9290 ca         1 WMJ      -0.008500
     24 CAH         -3.5490     0.4340    -0.9450 ca         1 WMJ      -0.179500
     25 CAJ         -4.5460     1.3270    -1.3760 ca         1 WMJ      -0.008500
     26 CAV         -5.4190     1.9290    -0.4420 ca         1 WMJ      -0.224200
     27 NBB         -6.4820     2.8800    -0.8990 no         1 WMJ       0.703200
     28 OAG         -7.2230     3.3830    -0.0440 o          1 WMJ      -0.406000
     29 OAF         -6.5720     3.1190    -2.1100 o          1 WMJ      -0.406000
     30 HAQ          6.0880     2.5310     0.5360 hn         1 WMJ       0.345500
     31 HAA1         2.6660     3.2940    -2.7090 hc         1 WMJ       0.049033
     32 HAA2         1.2810     2.4600    -1.9890 hc         1 WMJ       0.049033
     33 HAA3         1.8940     3.9470    -1.2500 hc         1 WMJ       0.049033
     34 HAL          1.9640     0.3770    -0.6950 h4         1 WMJ       0.210000
     35 HBA          4.1000    -1.3240     1.7260 h2         1 WMJ       0.107700
     36 HAN1         3.7550    -1.6580    -1.3310 hc         1 WMJ       0.078200
     37 HAN2         4.9410    -2.4370    -0.2750 hc         1 WMJ       0.078200
     38 HAZ          1.2960    -1.9130    -0.7540 h1         1 WMJ       0.083700
     39 HAY          3.1620    -3.8230     0.8170 h1         1 WMJ       0.044700
     40 HAE          3.6150    -4.5890    -1.3160 ho         1 WMJ       0.516000
     41 HAM1         0.0700    -3.8820     0.1040 h1         1 WMJ       0.072200
     42 HAM2         0.7770    -3.6560     1.7120 h1         1 WMJ       0.072200
     43 HAO         -0.8650    -2.0950     2.1790 hn         1 WMJ       0.322500
     44 HAP         -2.3950    -0.8090     1.9390 hn         1 WMJ       0.151000
     45 HAI         -4.1760     0.5050     2.4100 ha         1 WMJ       0.141500
     46 HAH         -2.8960    -0.0000    -1.6940 ha         1 WMJ       0.141500
     47 HAK         -5.9280     2.0690     1.6750 ha         1 WMJ       0.151000
     48 HAJ         -4.6310     1.5450    -2.4400 ha         1 WMJ       0.151000
@<TRIPOS>BOND
     1     1     2 2   
     2     2     3 1   
     3     2     9 1   
     4     3     4 1   
     5     3    30 1   
     6     4     5 2   
     7     4     6 1   
     8     6     7 1   
     9     6     8 2   
    10     7    31 1   
    11     7    32 1   
    12     7    33 1   
    13     8     9 1   
    14     8    34 1   
    15     9    10 1   
    16    10    11 1   
    17    10    12 1   
    18    10    35 1   
    19    11    15 1   
    20    12    13 1   
    21    12    36 1   
    22    12    37 1   
    23    13    14 1   
    24    13    15 1   
    25    13    39 1   
    26    14    40 1   
    27    15    16 1   
    28    15    38 1   
    29    16    17 1   
    30    16    41 1   
    31    16    42 1   
    32    17    18 1   
    33    17    43 1   
    34    18    19 2   
    35    18    20 1   
    36    20    21 1   
    37    20    44 1   
    38    21    22 ar  
    39    21    24 ar  
    40    22    23 ar  
    41    22    45 1   
    42    23    26 ar  
    43    23    47 1   
    44    24    25 ar  
    45    24    46 1   
    46    25    26 ar  
    47    25    48 1   
    48    26    27 1   
    49    27    28 1   
    50    27    29 1   
@<TRIPOS>SUBSTRUCTURE
     1 WMJ         1 TEMP              0 ****  ****    0 ROOT
