@<TRIPOS>MOLECULE
WMJ
   48    50     1     0     0
SMALL
bcc


@<TRIPOS>ATOM
      1 OAD          5.4120     0.1080     2.2780 o          1 WMJ      -0.634500
      2 CAX          4.9960     0.7190     1.3150 c          1 WMJ       0.834500
      3 NAQ          5.3910     2.0030     1.0440 ns         1 WMJ      -0.600500
      4 CAW          4.9970     2.8170    -0.0020 c          1 WMJ       0.728700
      5 OAC          5.4410     3.9450    -0.1090 o          1 WMJ      -0.596500
      6 CAT          4.0400     2.2090    -0.9060 cc         1 WMJ      -0.257400
      7 CAA          3.5350     3.0050    -2.0650 c3         1 WMJ      -0.021900
      8 CAL          3.6480     0.9510    -0.6500 cd         1 WMJ       0.039600
      9 NBC          4.1050     0.2000     0.4030 n          1 WMJ      -0.385000
     10 CBA          3.5760    -1.1430     0.5980 c5         1 WMJ       0.313500
     11 OAR          2.1760    -1.0680     0.7560 os         1 WMJ      -0.422600
     12 CAN          3.8320    -2.0900    -0.5670 c5         1 WMJ      -0.166400
     13 CAY          2.6060    -2.9940    -0.5060 c5         1 WMJ       0.122100
     14 OAE          2.2490    -3.6160    -1.7070 oh         1 WMJ      -0.572800
     15 CAZ          1.5200    -2.0050    -0.0900 c5         1 WMJ       0.111100
     16 CAM          0.3690    -2.6480     0.6590 c3         1 WMJ       0.122000
     17 NAO         -0.6230    -1.7050     1.1120 ns         1 WMJ      -0.580900
     18 CAS         -1.6580    -1.3180     0.3360 c          1 WMJ       0.798100
     19 OAB         -1.8530    -1.7500    -0.7870 o          1 WMJ      -0.609100
     20 NAP         -2.4820    -0.3930     0.9510 ns         1 WMJ      -0.484100
     21 CAU         -3.6480     0.1680     0.4800 ca         1 WMJ       0.144600
     22 CAI         -4.3440     1.0040     1.3670 ca         1 WMJ      -0.197500
     23 CAK         -5.5240     1.6100     1.0050 ca         1 WMJ      -0.026500
     24 CAH         -4.1770    -0.0350    -0.8030 ca         1 WMJ      -0.197500
     25 CAJ         -5.3680     0.5650    -1.1610 ca         1 WMJ      -0.026500
     26 CAV         -6.0400     1.3860    -0.2670 ca         1 WMJ      -0.224200
     27 NBB         -7.2790     2.0120    -0.6580 no         1 WMJ       0.323200
     28 OAG         -7.8450     2.7130     0.1500 o          1 WMJ      -0.216000
     29 OAF         -7.6950     1.8080    -1.7770 o          1 WMJ      -0.216000
     30 HAQ          6.0520     2.3970     1.7020 hn         1 WMJ       0.345500
     31 HAA1         4.3550     3.3350    -2.7040 hc         1 WMJ       0.049033
     32 HAA2         2.8530     2.4150    -2.6750 hc         1 WMJ       0.049033
     33 HAA3         3.0050     3.8990    -1.7340 hc         1 WMJ       0.049033
     34 HAL          2.9280     0.4620    -1.2920 h4         1 WMJ       0.160000
     35 HBA          4.0290    -1.5200     1.5130 h2         1 WMJ       0.107700
     36 HAN1         3.8470    -1.5620    -1.5250 hc         1 WMJ       0.078200
     37 HAN2         4.7780    -2.6170    -0.4580 hc         1 WMJ       0.078200
     38 HAZ          1.1390    -1.4940    -0.9850 h1         1 WMJ       0.083700
     39 HAY          2.7440    -3.7320     0.2980 h1         1 WMJ       0.044700
     40 HAE          2.8610    -4.3380    -1.8700 ho         1 WMJ       0.417000
     41 HAM1        -0.1000    -3.3920     0.0160 h1         1 WMJ       0.072200
     42 HAM2         0.7530    -3.1730     1.5360 h1         1 WMJ       0.072200
     43 HAO         -0.4670    -1.2690     2.0050 hn         1 WMJ       0.322500
     44 HAP         -2.2480    -0.1370     1.8990 hn         1 WMJ       0.317500
     45 HAI         -3.9510     1.1770     2.3610 ha         1 WMJ       0.159500
     46 HAH         -3.6760    -0.6660    -1.5160 ha         1 WMJ       0.159500
     47 HAK         -6.0310     2.2490     1.7130 ha         1 WMJ       0.169000
     48 HAJ         -5.7610     0.3880    -2.1520 ha         1 WMJ       0.169000
@<TRIPOS>BOND
     1     1     2 2   
     2     2     3 1   
     3     2     9 1   
     4     3     4 1   
     5     3    30 1   
     6     4     5 2   
     7     4     6 1   
     8     6     7 1   
     9     6     8 2   
    10     7    31 1   
    11     7    32 1   
    12     7    33 1   
    13     8     9 1   
    14     8    34 1   
    15     9    10 1   
    16    10    11 1   
    17    10    12 1   
    18    10    35 1   
    19    11    15 1   
    20    12    13 1   
    21    12    36 1   
    22    12    37 1   
    23    13    14 1   
    24    13    15 1   
    25    13    39 1   
    26    14    40 1   
    27    15    16 1   
    28    15    38 1   
    29    16    17 1   
    30    16    41 1   
    31    16    42 1   
    32    17    18 1   
    33    17    43 1   
    34    18    19 2   
    35    18    20 1   
    36    20    21 1   
    37    20    44 1   
    38    21    22 ar  
    39    21    24 ar  
    40    22    23 ar  
    41    22    45 1   
    42    23    26 ar  
    43    23    47 1   
    44    24    25 ar  
    45    24    46 1   
    46    25    26 ar  
    47    25    48 1   
    48    26    27 1   
    49    27    28 1   
    50    27    29 1   
@<TRIPOS>SUBSTRUCTURE
     1 WMJ         1 TEMP              0 ****  ****    0 ROOT
