@<TRIPOS>MOLECULE
WML
   40    41     1     0     0
SMALL
abcg2


@<TRIPOS>ATOM
      1 C10          6.1120     8.5680    17.0110 c          1 WML       0.607000
      2 C11          7.3220     7.4660    18.9120 c3         1 WML      -0.070400
      3 O12          6.0520     4.3950    15.4020 o          1 WML      -0.709000
      4 C17          6.2120     7.5440    19.9590 c3         1 WML      -0.081400
      5 C18          6.7520     7.6430    21.3840 c3         1 WML      -0.072400
      6 C19          5.6570     7.7860    22.4440 c3         1 WML      -0.071400
      7 C20          4.7080     6.5910    22.5410 c3         1 WML      -0.080400
      8 C21          3.6700     6.7510    23.6490 c3         1 WML      -0.087100
      9 C1           4.6560     6.1340    17.5410 ca         1 WML      -0.049300
     10 C2           6.1070     6.0300    17.1500 c6         1 WML      -0.166400
     11 C3           4.0150     7.3740    17.4380 ca         1 WML       0.002000
     12 C4           3.9270     5.0370    17.9830 ca         1 WML      -0.053000
     13 C5           6.8710     7.3290    17.4400 c6         1 WML      -0.109700
     14 C6           6.1690     5.6200    15.6420 c          1 WML       0.719000
     15 N7           4.7540     8.4950    17.0440 ns         1 WML      -0.133000
     16 C8           2.6640     7.5010    17.7470 ca         1 WML      -0.174000
     17 C9           2.5830     5.1790    18.2990 ca         1 WML      -0.035900
     18 O13          6.3030     6.5440    14.8040 o          1 WML      -0.709000
     19 C14          1.9350     6.3990    18.1770 ca         1 WML      -0.084000
     20 BR15         1.6060     3.6560    18.9400 br         1 WML      -0.159100
     21 O16          6.6770     9.6140    16.7000 o          1 WML      -0.585000
     22 H28          7.9620     6.6060    19.1310 hc         1 WML       0.037200
     23 H27          7.9560     8.3540    18.9920 hc         1 WML       0.037200
     24 H31          5.5730     8.4110    19.7610 hc         1 WML       0.045700
     25 H32          5.5740     6.6650    19.8790 hc         1 WML       0.045700
     26 H34          7.3540     6.7530    21.6030 hc         1 WML       0.032200
     27 H33          7.4310     8.4990    21.4520 hc         1 WML       0.032200
     28 H35          6.1250     7.9410    23.4220 hc         1 WML       0.028700
     29 H36          5.0720     8.6900    22.2370 hc         1 WML       0.028700
     30 H38          4.1940     6.4460    21.5870 hc         1 WML       0.045200
     31 H37          5.2950     5.6820    22.7140 hc         1 WML       0.045200
     32 H41          3.0050     5.8860    23.7030 hc         1 WML       0.025700
     33 H39          4.1510     6.8660    24.6240 hc         1 WML       0.025700
     34 H40          3.0530     7.6370    23.4780 hc         1 WML       0.025700
     35 H22          6.5650     5.2190    17.7160 hc         1 WML       0.058700
     36 H23          4.4180     4.0780    18.0820 ha         1 WML       0.139000
     37 H24          7.7750     7.3310    16.8310 hc         1 WML       0.096700
     38 H25          4.2550     9.3520    16.8430 hn         1 WML       0.141000
     39 H26          2.1820     8.4680    17.6640 ha         1 WML       0.103000
     40 H30          0.8880     6.5000    18.4240 ha         1 WML       0.111000
@<TRIPOS>BOND
     1     1    13 1   
     2     1    15 1   
     3     1    21 2   
     4     2     4 1   
     5     2    13 1   
     6     2    22 1   
     7     2    23 1   
     8     3    14 1   
     9     4     5 1   
    10     4    24 1   
    11     4    25 1   
    12     5     6 1   
    13     5    26 1   
    14     5    27 1   
    15     6     7 1   
    16     6    28 1   
    17     6    29 1   
    18     7     8 1   
    19     7    30 1   
    20     7    31 1   
    21     8    32 1   
    22     8    33 1   
    23     8    34 1   
    24     9    10 1   
    25     9    11 ar  
    26     9    12 ar  
    27    10    13 1   
    28    10    14 1   
    29    10    35 1   
    30    11    15 1   
    31    11    16 ar  
    32    12    17 ar  
    33    12    36 1   
    34    13    37 1   
    35    14    18 1   
    36    15    38 1   
    37    16    19 ar  
    38    16    39 1   
    39    17    19 ar  
    40    17    20 1   
    41    19    40 1   
@<TRIPOS>SUBSTRUCTURE
     1 WML         1 TEMP              0 ****  ****    0 ROOT
