@<TRIPOS>MOLECULE
WML
   40    41     1     0     0
SMALL
No Charge or Current Charge


@<TRIPOS>ATOM
      1 C10          6.0720     8.6500    17.0710 c          1 WML       0.607000
      2 C11          7.3560     7.4810    18.9180 c3         1 WML      -0.070400
      3 O12          6.6880     4.3030    15.7120 o          1 WML      -0.709000
      4 C17          6.2580     7.5450    20.0090 c3         1 WML      -0.081400
      5 C18          6.8320     7.6610    21.4400 c3         1 WML      -0.072400
      6 C19          5.7600     7.8160    22.5460 c3         1 WML      -0.071400
      7 C20          4.8260     6.5940    22.7110 c3         1 WML      -0.080400
      8 C21          3.8350     6.7480    23.8810 c3         1 WML      -0.087100
      9 C1           4.5330     6.1670    17.4410 ca         1 WML      -0.049300
     10 C2           6.0450     6.0290    17.2040 c6         1 WML      -0.166400
     11 C3           3.9110     7.4240    17.3260 ca         1 WML       0.002000
     12 C4           3.7550     5.0340    17.7470 ca         1 WML      -0.053000
     13 C5           6.8470     7.3590    17.4410 c6         1 WML      -0.109700
     14 C6           6.3200     5.4660    15.7870 c          1 WML       0.719000
     15 N7           4.6950     8.5570    17.0420 ns         1 WML      -0.133000
     16 C8           2.5230     7.5500    17.5050 ca         1 WML      -0.174000
     17 C9           2.3680     5.1620    17.9360 ca         1 WML      -0.035900
     18 O13          5.8330     6.0660    14.8410 o          1 WML      -0.709000
     19 C14          1.7500     6.4180    17.8130 ca         1 WML      -0.084000
     20 Br15         1.3180     3.6210    18.3570 br         1 WML      -0.159100
     21 O16          6.6520     9.6910    16.7840 o          1 WML      -0.585000
     22 H28          8.0170     6.6350    19.1420 hc         1 WML       0.037200
     23 H27          7.9840     8.3770    19.0080 hc         1 WML       0.037200
     24 H31          5.6000     8.4020    19.8210 hc         1 WML       0.045700
     25 H32          5.6390     6.6440    19.9470 hc         1 WML       0.045700
     26 H34          7.4500     6.7810    21.6570 hc         1 WML       0.032200
     27 H33          7.5000     8.5310    21.4840 hc         1 WML       0.032200
     28 H35          6.2730     7.9980    23.4980 hc         1 WML       0.028700
     29 H36          5.1570     8.7090    22.3410 hc         1 WML       0.028700
     30 H38          4.2520     6.4370    21.7890 hc         1 WML       0.045200
     31 H37          5.4300     5.6920    22.8710 hc         1 WML       0.045200
     32 H41          3.1930     5.8630    23.9570 hc         1 WML       0.025700
     33 H39          4.3710     6.8670    24.8300 hc         1 WML       0.025700
     34 H40          3.1940     7.6260    23.7320 hc         1 WML       0.025700
     35 H22          6.4350     5.2760    17.9020 hc         1 WML       0.058700
     36 H23          4.2250     4.0570    17.8340 ha         1 WML       0.139000
     37 H24          7.7680     7.3640    16.8410 hc         1 WML       0.096700
     38 H25          4.1920     9.4040    16.8110 hn         1 WML       0.141000
     39 H26          2.0440     8.5230    17.4150 ha         1 WML       0.103000
     40 H30          0.6760     6.5140    17.9580 ha         1 WML       0.111000
@<TRIPOS>BOND
     1     1    13 1   
     2     1    15 1   
     3     1    21 2   
     4     2     4 1   
     5     2    13 1   
     6     2    22 1   
     7     2    23 1   
     8     3    14 1   
     9     4     5 1   
    10     4    24 1   
    11     4    25 1   
    12     5     6 1   
    13     5    26 1   
    14     5    27 1   
    15     6     7 1   
    16     6    28 1   
    17     6    29 1   
    18     7     8 1   
    19     7    30 1   
    20     7    31 1   
    21     8    32 1   
    22     8    33 1   
    23     8    34 1   
    24     9    10 1   
    25     9    11 ar  
    26     9    12 ar  
    27    10    13 1   
    28    10    14 1   
    29    10    35 1   
    30    11    15 1   
    31    11    16 ar  
    32    12    17 ar  
    33    12    36 1   
    34    13    37 1   
    35    14    18 1   
    36    15    38 1   
    37    16    19 ar  
    38    16    39 1   
    39    17    19 ar  
    40    17    20 1   
    41    19    40 1   
@<TRIPOS>SUBSTRUCTURE
     1 WML         1 TEMP              0 ****  ****    0 ROOT
