@<TRIPOS>MOLECULE
WMM
   30    32     1     0     0
SMALL
abcg2


@<TRIPOS>ATOM
      1 C17          6.4790    -0.0190    -0.5320 ca         1 WMM      -0.127000
      2 C16          5.5640     0.9740    -0.8500 ca         1 WMM      -0.081500
      3 C18          6.0160    -1.2710    -0.1450 ca         1 WMM      -0.081500
      4 C15          4.1990     0.7290    -0.7860 ca         1 WMM      -0.146000
      5 C19          4.6560    -1.5190    -0.0540 ca         1 WMM      -0.146000
      6 C4          -0.0290     1.6430     1.2490 cc         1 WMM      -0.270000
      7 C10         -6.5480    -0.7010    -0.5370 cc         1 WMM       0.373400
      8 C14          3.7360    -0.5170    -0.3670 ca         1 WMM       0.297000
      9 C3          -0.6520     0.5160     0.8340 cd         1 WMM       0.320300
     10 C8          -4.4690    -0.2260    -0.2980 cc         1 WMM       0.478800
     11 C1           1.3810    -0.0320     0.2030 cc         1 WMM       0.710300
     12 N11         -6.3120    -0.6140     0.7360 nd         1 WMM      -0.353000
     13 N2           0.1440    -0.4240     0.2370 nd         1 WMM      -0.722000
     14 N12         -4.9930    -0.3100     0.8930 nd         1 WMM      -0.379000
     15 N9          -5.4140    -0.4640    -1.2360 na         1 WMM      -0.495000
     16 N13          2.3730    -0.8150    -0.2870 nu         1 WMM      -0.937900
     17 S5           1.6600     1.5400     0.9030 ss         1 WMM      -0.062400
     18 S7          -2.8200     0.1400    -0.7070 ss         1 WMM      -0.320300
     19 H1           7.5410     0.1760    -0.5920 ha         1 WMM       0.118000
     20 H2           5.9090     1.9470    -1.1750 ha         1 WMM       0.117000
     21 H3           6.7160    -2.0590     0.0990 ha         1 WMM       0.117000
     22 H4           3.5090     1.5030    -1.0960 ha         1 WMM       0.122500
     23 H5           4.3010    -2.4900     0.2680 ha         1 WMM       0.122500
     24 H6          -0.4540     2.5180     1.7140 h4         1 WMM       0.165000
     25 H11          2.1080    -1.7820    -0.4140 hn         1 WMM       0.512000
     26 H10         -5.3060    -0.4770    -2.2390 hn         1 WMM       0.368000
     27 C6          -2.1100     0.2540     0.9730 c3         1 WMM       0.044300
     28 H7          -7.4950    -0.9250    -1.0010 h5         1 WMM       0.064100
     29 H8          -2.2930    -0.6890     1.4880 h1         1 WMM       0.094200
     30 H9          -2.6020     1.0560     1.5190 h1         1 WMM       0.094200
@<TRIPOS>BOND
     1     1     2 ar  
     2     1     3 ar  
     3     1    19 1   
     4     2     4 ar  
     5     2    20 1   
     6     3     5 ar  
     7     3    21 1   
     8     4     8 ar  
     9     4    22 1   
    10     5     8 ar  
    11     5    23 1   
    12     6     9 2   
    13     6    17 1   
    14     6    24 1   
    15     7    12 2   
    16     7    15 1   
    17     7    28 1   
    18     8    16 1   
    19     9    13 1   
    20     9    27 1   
    21    10    14 2   
    22    10    15 1   
    23    10    18 1   
    24    11    13 2   
    25    11    16 1   
    26    11    17 1   
    27    12    14 1   
    28    15    26 1   
    29    16    25 1   
    30    18    27 1   
    31    27    29 1   
    32    27    30 1   
@<TRIPOS>SUBSTRUCTURE
     1 WMM         1 TEMP              0 ****  ****    0 ROOT
