@<TRIPOS>MOLECULE
WMM
   30    32     1     0     0
SMALL
No Charge or Current Charge


@<TRIPOS>ATOM
      1 C17          6.7090    -0.0090    -0.3260 ca         1 WMM      -0.127000
      2 C16          5.8300     0.9340    -0.8850 ca         1 WMM      -0.081500
      3 C18          6.2020    -1.1850     0.2500 ca         1 WMM      -0.081500
      4 C15          4.4430     0.7010    -0.8610 ca         1 WMM      -0.146000
      5 C19          4.8150    -1.4150     0.2720 ca         1 WMM      -0.146000
      6 C4          -0.2250     1.6180     0.6230 cc         1 WMM      -0.270000
      7 C10         -6.8870    -0.5900    -0.2280 cc         1 WMM       0.373400
      8 C14          3.9290    -0.4700    -0.2730 ca         1 WMM       0.297000
      9 C3          -0.6540     0.3210     0.4450 cd         1 WMM       0.320300
     10 C8          -4.7780    -0.1250    -0.1920 cc         1 WMM       0.478800
     11 C1           1.4880     0.0450     0.0330 cc         1 WMM       0.710300
     12 N11         -6.3230    -1.2810     0.7600 nd         1 WMM      -0.353000
     13 N2           0.3450    -0.5860     0.1150 nd         1 WMM      -0.722000
     14 N12         -4.9760    -0.9840     0.7840 nd         1 WMM      -0.379000
     15 N9          -5.9230     0.1580    -0.8530 na         1 WMM      -0.495000
     16 N13          2.5630    -0.7250    -0.2450 nu         1 WMM      -0.937900
     17 S5           1.4920     1.7550     0.3780 ss         1 WMM      -0.062400
     18 S7          -3.2490     0.6110    -0.6370 ss         1 WMM      -0.320300
     19 H1           7.7820     0.1700    -0.3450 ha         1 WMM       0.118000
     20 H2           6.2210     1.8410    -1.3410 ha         1 WMM       0.117000
     21 H3           6.8830    -1.9190     0.6790 ha         1 WMM       0.117000
     22 H4           3.7740     1.4250    -1.3140 ha         1 WMM       0.122500
     23 H5           4.4290    -2.3260     0.7200 ha         1 WMM       0.122500
     24 H6          -0.8100     2.4910     0.8810 h4         1 WMM       0.165000
     25 H11          2.2970    -1.7000    -0.1550 hn         1 WMM       0.512000
     26 H10         -6.0390     0.7840    -1.6350 hn         1 WMM       0.368000
     27 C6          -2.0800    -0.1460     0.5890 c3         1 WMM       0.044300
     28 H7          -7.9310    -0.5920    -0.5190 h5         1 WMM       0.064100
     29 H8          -2.1110    -1.2370     0.4780 h1         1 WMM       0.094200
     30 H9          -2.4230     0.0960     1.6020 h1         1 WMM       0.094200
@<TRIPOS>BOND
     1     1     2 ar  
     2     1     3 ar  
     3     1    19 1   
     4     2     4 ar  
     5     2    20 1   
     6     3     5 ar  
     7     3    21 1   
     8     4     8 ar  
     9     4    22 1   
    10     5     8 ar  
    11     5    23 1   
    12     6     9 2   
    13     6    17 1   
    14     6    24 1   
    15     7    12 2   
    16     7    15 1   
    17     7    28 1   
    18     8    16 1   
    19     9    13 1   
    20     9    27 1   
    21    10    14 2   
    22    10    15 1   
    23    10    18 1   
    24    11    13 2   
    25    11    16 1   
    26    11    17 1   
    27    12    14 1   
    28    15    26 1   
    29    16    25 1   
    30    18    27 1   
    31    27    29 1   
    32    27    30 1   
@<TRIPOS>SUBSTRUCTURE
     1 WMM         1 TEMP              0 ****  ****    0 ROOT
