@<TRIPOS>MOLECULE
WMO
   31    31     1     0     0
SMALL
No Charge or Current Charge


@<TRIPOS>ATOM
      1 C02         17.3750     5.5300    13.4850 c          1 WMO       0.609700
      2 C03         16.9570     4.3310    14.3190 ca         1 WMO      -0.092600
      3 C04         17.8680     3.3100    14.6890 ca         1 WMO      -0.097000
      4 C05         17.4450     2.2140    15.4630 ca         1 WMO      -0.017000
      5 C06         16.1040     2.1160    15.8840 ca         1 WMO      -0.260500
      6 C11         15.1890     3.1230    15.5210 ca         1 WMO      -0.017000
      7 C12         15.6140     4.2170    14.7480 ca         1 WMO      -0.097000
      8 C14         19.3190     6.6960    12.3570 c3         1 WMO       0.100000
      9 C15         20.1490     7.6350    13.2640 c3         1 WMO       0.132600
     10 C17         19.9400     9.1130    15.1690 c3         1 WMO       0.143900
     11 N08         15.1000    -0.3710    15.7530 n8         1 WMO      -1.034100
     12 N13         18.6980     5.5810    13.0930 ns         1 WMO      -0.495900
     13 O01         16.5810     6.4050    13.1630 o          1 WMO      -0.589100
     14 O09         16.6980     0.0630    17.5240 o          1 WMO      -0.551000
     15 O10         14.3240     1.0190    17.5820 o          1 WMO      -0.551000
     16 O16         19.2820     8.2220    14.2530 os         1 WMO      -0.451000
     17 S07         15.5650     0.7150    16.8730 sy         1 WMO       1.161600
     18 H041        18.9110     3.3460    14.3870 ha         1 WMO       0.130500
     19 H051        18.1650     1.4420    15.7310 ha         1 WMO       0.138500
     20 H111        14.1480     3.0630    15.8340 ha         1 WMO       0.138500
     21 H121        14.8880     4.9820    14.4810 ha         1 WMO       0.130500
     22 H141        18.5470     7.2820    11.8400 h1         1 WMO       0.070700
     23 H142        19.9790     6.2760    11.5870 h1         1 WMO       0.070700
     24 H151        20.9500     7.0580    13.7450 h1         1 WMO       0.026200
     25 H152        20.6110     8.4140    12.6450 h1         1 WMO       0.026200
     26 H171        19.2200     9.5200    15.8890 h1         1 WMO       0.031367
     27 H173        20.7240     8.5870    15.7300 h1         1 WMO       0.031367
     28 H172        20.4010     9.9540    14.6330 h1         1 WMO       0.031367
     29 H1          15.6330    -1.1790    16.0660 hn         1 WMO       0.485000
     30 H081        14.1680    -0.5870    16.0990 hn         1 WMO       0.485000
     31 H131        19.2920     4.8200    13.3930 hn         1 WMO       0.311500
@<TRIPOS>BOND
     1     1     2 1   
     2     1    12 1   
     3     1    13 2   
     4     2     3 ar  
     5     2     7 ar  
     6     3     4 ar  
     7     3    18 1   
     8     4     5 ar  
     9     4    19 1   
    10     5     6 ar  
    11     5    17 1   
    12     6     7 ar  
    13     6    20 1   
    14     7    21 1   
    15     8     9 1   
    16     8    12 1   
    17     8    22 1   
    18     8    23 1   
    19     9    16 1   
    20     9    24 1   
    21     9    25 1   
    22    10    16 1   
    23    10    26 1   
    24    10    27 1   
    25    10    28 1   
    26    11    17 1   
    27    11    29 1   
    28    11    30 1   
    29    12    31 1   
    30    14    17 2   
    31    15    17 2   
@<TRIPOS>SUBSTRUCTURE
     1 WMO         1 TEMP              0 ****  ****    0 ROOT
