@<TRIPOS>MOLECULE
WMO
   31    31     1     0     0
SMALL
abcg2


@<TRIPOS>ATOM
      1 C02         17.4070     5.4240    13.3880 c          1 WMO       0.609700
      2 C03         16.9790     4.2620    14.2410 ca         1 WMO      -0.092600
      3 C04         17.7140     3.0760    14.3270 ca         1 WMO      -0.097000
      4 C05         17.2680     2.0310    15.1200 ca         1 WMO      -0.017000
      5 C06         16.0820     2.1770    15.8330 ca         1 WMO      -0.260500
      6 C11         15.3350     3.3450    15.7550 ca         1 WMO      -0.017000
      7 C12         15.7850     4.3820    14.9500 ca         1 WMO      -0.097000
      8 C14         19.3430     6.6410    12.4500 c3         1 WMO       0.100000
      9 C15         20.0860     7.5990    13.3620 c3         1 WMO       0.132600
     10 C17         19.7920     9.0840    15.1700 c3         1 WMO       0.143900
     11 N08         15.4890    -0.4270    15.9070 n8         1 WMO      -1.034100
     12 N13         18.7310     5.5440    13.1800 ns         1 WMO      -0.495900
     13 O01         16.5710     6.2030    12.9250 o          1 WMO      -0.589100
     14 O09         16.6100     0.5890    17.8560 o          1 WMO      -0.551000
     15 O10         14.2460     1.2240    17.4180 o          1 WMO      -0.551000
     16 O16         19.1600     8.2420    14.2190 os         1 WMO      -0.451000
     17 S07         15.5530     0.8690    16.9090 sy         1 WMO       1.161600
     18 H041        18.6250     2.9470    13.7580 ha         1 WMO       0.130500
     19 H051        17.8320     1.1100    15.1760 ha         1 WMO       0.138500
     20 H111        14.4160     3.4390    16.3150 ha         1 WMO       0.138500
     21 H121        15.2130     5.2950    14.8700 ha         1 WMO       0.130500
     22 H141        18.5550     7.1660    11.9150 h1         1 WMO       0.070700
     23 H142        20.0470     6.2370    11.7190 h1         1 WMO       0.070700
     24 H151        20.8320     7.0550    13.9560 h1         1 WMO       0.026200
     25 H152        20.6190     8.3380    12.7480 h1         1 WMO       0.026200
     26 H171        19.0090     9.5260    15.7840 h1         1 WMO       0.031367
     27 H173        20.4750     8.5120    15.8090 h1         1 WMO       0.031367
     28 H172        20.3590     9.8820    14.6770 h1         1 WMO       0.031367
     29 H1          15.7540    -1.2820    16.3830 hn         1 WMO       0.485000
     30 H081        14.6050    -0.5110    15.4140 hn         1 WMO       0.485000
     31 H131        19.3530     4.9160    13.6640 hn         1 WMO       0.311500
@<TRIPOS>BOND
     1     1     2 1   
     2     1    12 1   
     3     1    13 2   
     4     2     3 ar  
     5     2     7 ar  
     6     3     4 ar  
     7     3    18 1   
     8     4     5 ar  
     9     4    19 1   
    10     5     6 ar  
    11     5    17 1   
    12     6     7 ar  
    13     6    20 1   
    14     7    21 1   
    15     8     9 1   
    16     8    12 1   
    17     8    22 1   
    18     8    23 1   
    19     9    16 1   
    20     9    24 1   
    21     9    25 1   
    22    10    16 1   
    23    10    26 1   
    24    10    27 1   
    25    10    28 1   
    26    11    17 1   
    27    11    29 1   
    28    11    30 1   
    29    12    31 1   
    30    14    17 2   
    31    15    17 2   
@<TRIPOS>SUBSTRUCTURE
     1 WMO         1 TEMP              0 ****  ****    0 ROOT
