@<TRIPOS>MOLECULE
WMR
   42    44     1     0     0
SMALL
No Charge or Current Charge


@<TRIPOS>ATOM
      1 C8          -1.3070     1.4280     0.0880 ca         1 WMR      -0.299900
      2 C7          -1.0290     0.0460     0.0200 ca         1 WMR       0.060700
      3 C6           0.3210    -0.2910    -0.2950 ca         1 WMR      -0.177300
      4 C5           1.2390     0.7670    -0.5670 ca         1 WMR       0.417300
      5 C12         -0.3580     2.3710    -0.1800 ca         1 WMR       0.408500
      6 C9          -2.4800     2.1960     0.4210 cc         1 WMR       0.556800
      7 C15         -2.1370    -0.9880     0.3070 c6         1 WMR      -0.032100
      8 C18          0.8230    -1.7440    -0.3740 c6         1 WMR       0.116900
      9 C16         -1.8590    -2.4490    -0.1220 c6         1 WMR       0.101000
     10 C19         -2.9220    -3.4050     0.4890 c3         1 WMR      -0.082600
     11 C20         -1.9180    -2.6130    -1.6720 c3         1 WMR      -0.082600
     12 C1           6.0430     0.1230     1.1340 c3         1 WMR      -0.089100
     13 C4           2.7010     0.5240    -0.9460 c3         1 WMR      -0.136700
     14 C2           5.1080     0.1770    -0.0900 c3         1 WMR      -0.075400
     15 C3           3.6390     0.4680     0.2840 c3         1 WMR      -0.074400
     16 N13          0.9020     2.0760    -0.5130 nb         1 WMR      -0.698000
     17 N10         -2.3150     3.5050     0.3610 nd         1 WMR      -0.578100
     18 N11         -0.9740     3.5950    -0.0260 na         1 WMR      -0.166100
     19 N14         -3.6630     1.7180     0.8280 nv         1 WMR      -0.961200
     20 S17         -0.2200    -2.9760     0.5130 ss         1 WMR      -0.425000
     21 H151        -2.3420    -0.9650     1.3860 hc         1 WMR       0.066200
     22 H152        -3.0630    -0.6740    -0.1900 hc         1 WMR       0.066200
     23 H181         0.9000    -2.0510    -1.4270 h1         1 WMR       0.075700
     24 H182         1.8280    -1.8240     0.0620 h1         1 WMR       0.075700
     25 H41C         2.8040    -0.3960    -1.5320 hc         1 WMR       0.057700
     26 H42C         3.0480     1.3250    -1.6110 hc         1 WMR       0.057700
     27 H11         -0.5110     4.4890    -0.1680 hn         1 WMR       0.388000
     28 H141        -3.8800     0.7470     0.6510 hn         1 WMR       0.446000
     29 H142        -4.4360     2.3720     0.8640 hn         1 WMR       0.446000
     30 H191        -3.9350    -3.1410     0.1620 hc         1 WMR       0.045200
     31 H192        -2.7390    -4.4450     0.1960 hc         1 WMR       0.045200
     32 H193        -2.9090    -3.3670     1.5850 hc         1 WMR       0.045200
     33 H201        -1.2640    -1.9050    -2.1910 hc         1 WMR       0.045200
     34 H202        -1.6230    -3.6240    -1.9770 hc         1 WMR       0.045200
     35 H203        -2.9330    -2.4390    -2.0500 hc         1 WMR       0.045200
     36 H11C         7.0730    -0.0850     0.8190 hc         1 WMR       0.033367
     37 H12C         6.0350     1.0800     1.6700 hc         1 WMR       0.033367
     38 H13C         5.7300    -0.6660     1.8270 hc         1 WMR       0.033367
     39 H21C         5.4690     0.9500    -0.7800 hc         1 WMR       0.036700
     40 H22C         5.1660    -0.7810    -0.6230 hc         1 WMR       0.036700
     41 H31C         3.5860     1.4250     0.8180 hc         1 WMR       0.048200
     42 H32C         3.2860    -0.3020     0.9810 hc         1 WMR       0.048200
@<TRIPOS>BOND
     1     1     2 ar  
     2     1     5 ar  
     3     1     6 1   
     4     2     3 ar  
     5     2     7 1   
     6     3     4 ar  
     7     3     8 1   
     8     4    13 1   
     9     4    16 ar  
    10     5    16 ar  
    11     5    18 1   
    12     6    17 2   
    13     6    19 1   
    14     7     9 1   
    15     7    21 1   
    16     7    22 1   
    17     8    20 1   
    18     8    23 1   
    19     8    24 1   
    20     9    10 1   
    21     9    11 1   
    22     9    20 1   
    23    10    30 1   
    24    10    31 1   
    25    10    32 1   
    26    11    33 1   
    27    11    34 1   
    28    11    35 1   
    29    12    14 1   
    30    12    36 1   
    31    12    37 1   
    32    12    38 1   
    33    13    15 1   
    34    13    25 1   
    35    13    26 1   
    36    14    15 1   
    37    14    39 1   
    38    14    40 1   
    39    15    41 1   
    40    15    42 1   
    41    17    18 1   
    42    18    27 1   
    43    19    28 1   
    44    19    29 1   
@<TRIPOS>SUBSTRUCTURE
     1 WMR         1 TEMP              0 ****  ****    0 ROOT
