@<TRIPOS>MOLECULE
WMR
   42    44     1     0     0
SMALL
abcg2


@<TRIPOS>ATOM
      1 C8          -1.3480     1.3770     0.1180 ca         1 WMR      -0.299900
      2 C7          -1.0110     0.0180     0.0200 ca         1 WMR       0.060700
      3 C6           0.3140    -0.2690    -0.2870 ca         1 WMR      -0.177300
      4 C5           1.2220     0.7950    -0.5600 ca         1 WMR       0.417300
      5 C12         -0.3510     2.3300    -0.1300 ca         1 WMR       0.408500
      6 C9          -2.5000     2.1630     0.4490 cc         1 WMR       0.556800
      7 C15         -2.0820    -1.0090     0.2720 c6         1 WMR      -0.032100
      8 C18          0.8380    -1.6800    -0.3770 c6         1 WMR       0.116900
      9 C16         -1.7890    -2.4450    -0.1470 c6         1 WMR       0.101000
     10 C19         -2.7970    -3.3820     0.5070 c3         1 WMR      -0.082600
     11 C20         -1.8340    -2.6030    -1.6620 c3         1 WMR      -0.082600
     12 C1           5.9510     0.1020     1.0920 c3         1 WMR      -0.089100
     13 C4           2.6490     0.5140    -0.9400 c3         1 WMR      -0.136700
     14 C2           5.0040     0.0880    -0.0990 c3         1 WMR      -0.075400
     15 C3           3.5780     0.4710     0.2760 c3         1 WMR      -0.074400
     16 N13          0.9030     2.0750    -0.4830 nb         1 WMR      -0.698000
     17 N10         -2.2140     3.4400     0.3970 nd         1 WMR      -0.578100
     18 N11         -0.9100     3.5370     0.0530 na         1 WMR      -0.166100
     19 N14         -3.7370     1.7170     0.8670 nv         1 WMR      -0.961200
     20 S17         -0.1500    -2.8970     0.5140 ss         1 WMR      -0.425000
     21 H151        -2.3260    -0.9850     1.3390 hc         1 WMR       0.066200
     22 H152        -2.9890    -0.6950    -0.2540 hc         1 WMR       0.066200
     23 H181         0.9550    -1.9910    -1.4180 h1         1 WMR       0.075700
     24 H182         1.8290    -1.7510     0.0730 h1         1 WMR       0.075700
     25 H41C         2.7270    -0.4190    -1.5020 hc         1 WMR       0.057700
     26 H42C         2.9830     1.3060    -1.6130 hc         1 WMR       0.057700
     27 H11         -0.4790     4.4410    -0.0450 hn         1 WMR       0.388000
     28 H141        -4.0990     0.9350     0.3460 hn         1 WMR       0.446000
     29 H142        -4.4250     2.4550     0.9060 hn         1 WMR       0.446000
     30 H191        -3.8070    -3.1190     0.1900 hc         1 WMR       0.045200
     31 H192        -2.6160    -4.4190     0.2210 hc         1 WMR       0.045200
     32 H193        -2.7600    -3.3150     1.5960 hc         1 WMR       0.045200
     33 H201        -1.1450    -1.9330    -2.1770 hc         1 WMR       0.045200
     34 H202        -1.5920    -3.6240    -1.9560 hc         1 WMR       0.045200
     35 H203        -2.8390    -2.3750    -2.0260 hc         1 WMR       0.045200
     36 H11C         6.9620    -0.1830     0.8000 hc         1 WMR       0.033367
     37 H12C         6.0050     1.0950     1.5430 hc         1 WMR       0.033367
     38 H13C         5.6230    -0.5920     1.8680 hc         1 WMR       0.033367
     39 H21C         5.3720     0.7720    -0.8690 hc         1 WMR       0.036700
     40 H22C         5.0000    -0.9060    -0.5540 hc         1 WMR       0.036700
     41 H31C         3.5710     1.4510     0.7620 hc         1 WMR       0.048200
     42 H32C         3.1960    -0.2370     1.0200 hc         1 WMR       0.048200
@<TRIPOS>BOND
     1     1     2 ar  
     2     1     5 ar  
     3     1     6 1   
     4     2     3 ar  
     5     2     7 1   
     6     3     4 ar  
     7     3     8 1   
     8     4    13 1   
     9     4    16 ar  
    10     5    16 ar  
    11     5    18 1   
    12     6    17 2   
    13     6    19 1   
    14     7     9 1   
    15     7    21 1   
    16     7    22 1   
    17     8    20 1   
    18     8    23 1   
    19     8    24 1   
    20     9    10 1   
    21     9    11 1   
    22     9    20 1   
    23    10    30 1   
    24    10    31 1   
    25    10    32 1   
    26    11    33 1   
    27    11    34 1   
    28    11    35 1   
    29    12    14 1   
    30    12    36 1   
    31    12    37 1   
    32    12    38 1   
    33    13    15 1   
    34    13    25 1   
    35    13    26 1   
    36    14    15 1   
    37    14    39 1   
    38    14    40 1   
    39    15    41 1   
    40    15    42 1   
    41    17    18 1   
    42    18    27 1   
    43    19    28 1   
    44    19    29 1   
@<TRIPOS>SUBSTRUCTURE
     1 WMR         1 TEMP              0 ****  ****    0 ROOT
