@<TRIPOS>MOLECULE
WMS
   25    26     1     0     0
SMALL
bcc


@<TRIPOS>ATOM
      1 C01        -29.3230    -7.6180   -18.6110 c3         1 WMS      -0.133400
      2 C02        -28.6170    -8.1830   -19.7920 cc         1 WMS       0.446700
      3 C04        -28.1950    -9.4430   -21.5460 cd         1 WMS       0.358200
      4 C05        -27.0760    -8.6780   -21.6170 cc         1 WMS      -0.186700
      5 C06        -25.9570    -8.7510   -22.5940 c3         1 WMS       0.290100
      6 C08        -24.7270    -7.2440   -24.0960 ca         1 WMS       0.086300
      7 C09        -24.7180    -6.0810   -24.8910 ca         1 WMS       0.323200
      8 C11        -22.6750    -6.5560   -25.8050 ca         1 WMS       0.313200
      9 C12        -22.6110    -7.7190   -25.0660 ca         1 WMS       0.063600
     10 C14        -23.6250    -8.0950   -24.2090 ca         1 WMS      -0.225000
     11 F13        -21.5400    -8.5140   -25.1890 f          1 WMS      -0.136900
     12 N03        -29.0510    -9.1620   -20.5180 nd         1 WMS      -0.644000
     13 N07        -25.7720    -7.4740   -23.2460 nu         1 WMS      -0.751600
     14 N10        -23.7350    -5.7590   -25.7040 nb         1 WMS      -0.613000
     15 S15        -27.1030    -7.5330   -20.3280 ss         1 WMS      -0.165300
     16 H1         -30.1930    -8.2280   -18.3780 hc         1 WMS       0.061033
     17 H2         -28.6750    -7.5890   -17.7350 hc         1 WMS       0.061033
     18 H3         -29.6600    -6.5990   -18.8040 hc         1 WMS       0.061033
     19 H4         -28.4320   -10.2380   -22.2400 h4         1 WMS       0.042100
     20 H5         -26.1630    -9.5620   -23.3040 h1         1 WMS       0.054700
     21 H6         -25.0350    -9.0190   -22.0710 h1         1 WMS       0.054700
     22 H7         -25.5610    -5.3990   -24.8400 h4         1 WMS       0.021100
     23 H8         -21.8750    -6.2700   -26.4780 h4         1 WMS       0.038100
     24 H9         -23.5480    -9.0220   -23.6560 ha         1 WMS       0.153000
     25 H10        -26.6260    -6.9910   -23.4810 hn         1 WMS       0.424800
@<TRIPOS>BOND
     1     1     2 1   
     2     1    16 1   
     3     1    17 1   
     4     1    18 1   
     5     2    12 2   
     6     2    15 1   
     7     3     4 2   
     8     3    12 1   
     9     3    19 1   
    10     4     5 1   
    11     4    15 1   
    12     5    13 1   
    13     5    20 1   
    14     5    21 1   
    15     6     7 ar  
    16     6    10 ar  
    17     6    13 1   
    18     7    14 ar  
    19     7    22 1   
    20     8     9 ar  
    21     8    14 ar  
    22     8    23 1   
    23     9    10 ar  
    24     9    11 1   
    25    10    24 1   
    26    13    25 1   
@<TRIPOS>SUBSTRUCTURE
     1 WMS         1 TEMP              0 ****  ****    0 ROOT
