@<TRIPOS>MOLECULE
WMS
   25    26     1     0     0
SMALL
No Charge or Current Charge


@<TRIPOS>ATOM
      1 C01        -29.5260    -7.6970   -18.6680 c3         1 WMS      -0.133400
      2 C02        -28.6940    -8.1800   -19.8180 cc         1 WMS       0.446700
      3 C04        -28.1560    -9.2690   -21.6760 cd         1 WMS       0.292900
      4 C05        -26.9620    -8.6280   -21.4380 cc         1 WMS      -0.266300
      5 C06        -25.7110    -8.7230   -22.2510 c3         1 WMS       0.290100
      6 C08        -24.6980    -7.2880   -24.1340 ca         1 WMS       0.290000
      7 C09        -24.7230    -6.0640   -24.8650 ca         1 WMS       0.257900
      8 C11        -22.7680    -6.5790   -25.9970 ca         1 WMS       0.247900
      9 C12        -22.6610    -7.8150   -25.3220 ca         1 WMS       0.164000
     10 C14        -23.6360    -8.1790   -24.3780 ca         1 WMS      -0.207000
     11 F13        -21.6280    -8.6490   -25.5790 f          1 WMS      -0.172000
     12 N03        -29.1540    -9.0090   -20.7460 nd         1 WMS      -0.644000
     13 N07        -25.7010    -7.6080   -23.1980 nu         1 WMS      -0.945200
     14 N10        -23.7830    -5.7040   -25.7800 nb         1 WMS      -0.613000
     15 S15        -27.0390    -7.6570   -19.9940 ss         1 WMS      -0.020400
     16 H1         -30.4860    -8.2250   -18.6230 hc         1 WMS       0.061033
     17 H2         -29.0040    -7.8610   -17.7190 hc         1 WMS       0.061033
     18 H3         -29.7320    -6.6260   -18.7660 hc         1 WMS       0.061033
     19 H4         -28.3600    -9.9340   -22.5060 h4         1 WMS       0.042100
     20 H5         -25.6880    -9.6840   -22.7840 h1         1 WMS       0.054700
     21 H6         -24.8350    -8.6750   -21.5890 h1         1 WMS       0.054700
     22 H7         -25.5280    -5.3470   -24.7060 h4         1 WMS       0.021100
     23 H8         -22.0200    -6.2840   -26.7310 h4         1 WMS       0.038100
     24 H9         -23.5590    -9.1280   -23.8580 ha         1 WMS       0.135000
     25 H10        -26.4400    -6.9130   -23.0740 hn         1 WMS       0.480000
@<TRIPOS>BOND
     1     1     2 1   
     2     1    16 1   
     3     1    17 1   
     4     1    18 1   
     5     2    12 2   
     6     2    15 1   
     7     3     4 2   
     8     3    12 1   
     9     3    19 1   
    10     4     5 1   
    11     4    15 1   
    12     5    13 1   
    13     5    20 1   
    14     5    21 1   
    15     6     7 ar  
    16     6    10 ar  
    17     6    13 1   
    18     7    14 ar  
    19     7    22 1   
    20     8     9 ar  
    21     8    14 ar  
    22     8    23 1   
    23     9    10 ar  
    24     9    11 1   
    25    10    24 1   
    26    13    25 1   
@<TRIPOS>SUBSTRUCTURE
     1 WMS         1 TEMP              0 ****  ****    0 ROOT
