@<TRIPOS>MOLECULE
WMV
   40    41     1     0     0
SMALL
No Charge or Current Charge


@<TRIPOS>ATOM
      1 C13        -32.8130    31.4020   -24.0330 c6         1 WMV      -0.055700
      2 C15        -34.9840    30.1150   -24.5570 c6         1 WMV      -0.072900
      3 C17        -34.6230    32.5080   -25.4960 c6         1 WMV      -0.072900
      4 C02        -27.0060    28.1180   -24.5870 cc         1 WMV       0.301300
      5 C05        -25.5490    29.6240   -25.2300 cd         1 WMV       0.267300
      6 C06        -24.7350    30.8120   -25.6670 c3         1 WMV      -0.143400
      7 C07        -26.8670    29.4890   -24.9240 cc         1 WMV      -0.313600
      8 C08        -27.8600    30.5820   -24.9640 c          1 WMV       0.654700
      9 C12        -31.5690    30.4670   -24.1420 c3         1 WMV      -0.092400
     10 C14        -34.0530    30.6530   -23.4450 c6         1 WMV      -0.071400
     11 C16        -35.5670    31.2730   -25.4170 c6         1 WMV      -0.073400
     12 C18        -33.1380    32.0880   -25.4010 c6         1 WMV      -0.071400
     13 N03        -25.8720    27.4430   -24.6710 nd         1 WMV      -0.367300
     14 N10        -29.1430    30.2380   -24.6190 ns         1 WMV      -0.504900
     15 O04        -24.9120    28.4210   -25.0910 os         1 WMV      -0.069700
     16 O09        -27.5830    31.7290   -25.2800 o          1 WMV      -0.616100
     17 H1         -32.5370    32.1850   -23.3130 hc         1 WMV       0.043700
     18 H2         -35.8030    29.5290   -24.1170 hc         1 WMV       0.038450
     19 H3         -34.4210    29.4220   -25.1980 hc         1 WMV       0.038450
     20 H4         -34.8550    33.2060   -24.6790 hc         1 WMV       0.038450
     21 H5         -34.8050    33.0570   -26.4300 hc         1 WMV       0.038450
     22 H6         -28.1020    26.3680   -23.9650 hc         1 WMV       0.059033
     23 H7         -28.6810    27.8720   -23.2470 hc         1 WMV       0.059033
     24 H8         -29.0370    27.4870   -24.9570 hc         1 WMV       0.059033
     25 H9         -23.6860    30.5390   -25.8240 hc         1 WMV       0.074367
     26 H10        -25.1190    31.2230   -26.6080 hc         1 WMV       0.074367
     27 H11        -24.7650    31.6050   -24.9110 hc         1 WMV       0.074367
     28 H14        -31.7830    29.6440   -24.8360 hc         1 WMV       0.042200
     29 H15        -31.3780    30.0040   -23.1660 hc         1 WMV       0.042200
     30 H16        -33.7360    29.8310   -22.7880 hc         1 WMV       0.040450
     31 H17        -34.6240    31.3400   -22.8050 hc         1 WMV       0.040450
     32 H18        -36.5360    31.5900   -25.0080 hc         1 WMV       0.037200
     33 H19        -35.7720    30.8970   -26.4290 hc         1 WMV       0.037200
     34 H20        -32.9120    31.4060   -26.2320 hc         1 WMV       0.040450
     35 H21        -32.4930    32.9660   -25.5410 hc         1 WMV       0.040450
     36 H22        -29.3090    29.2750   -24.3670 hn         1 WMV       0.311500
     37 C11        -30.2710    31.1680   -24.5940 c3         1 WMV       0.098000
     38 C01        -28.2790    27.4320   -24.1670 c3         1 WMV      -0.140400
     39 H12        -30.0380    31.9910   -23.9040 h1         1 WMV       0.056700
     40 H13        -30.4020    31.5880   -25.6000 h1         1 WMV       0.056700
@<TRIPOS>BOND
     1     1     9 1   
     2     1    10 1   
     3     1    12 1   
     4     1    17 1   
     5     2    10 1   
     6     2    11 1   
     7     2    18 1   
     8     2    19 1   
     9     3    11 1   
    10     3    12 1   
    11     3    20 1   
    12     3    21 1   
    13     4     7 1   
    14     4    13 2   
    15     4    38 1   
    16     5     6 1   
    17     5     7 2   
    18     5    15 1   
    19     6    25 1   
    20     6    26 1   
    21     6    27 1   
    22     7     8 1   
    23     8    14 1   
    24     8    16 2   
    25     9    28 1   
    26     9    29 1   
    27     9    37 1   
    28    10    30 1   
    29    10    31 1   
    30    11    32 1   
    31    11    33 1   
    32    12    34 1   
    33    12    35 1   
    34    13    15 1   
    35    14    36 1   
    36    14    37 1   
    37    22    38 1   
    38    23    38 1   
    39    24    38 1   
    40    37    39 1   
    41    37    40 1   
@<TRIPOS>SUBSTRUCTURE
     1 WMV         1 TEMP              0 ****  ****    0 ROOT
