@<TRIPOS>MOLECULE
WMV
   40    41     1     0     0
SMALL
bcc


@<TRIPOS>ATOM
      1 C13        -32.8340    31.2910   -23.9190 c6         1 WMV      -0.055700
      2 C15        -34.7550    30.1000   -25.0610 c6         1 WMV      -0.072900
      3 C17        -34.4480    32.6080   -25.3560 c6         1 WMV      -0.072900
      4 C02        -27.0430    28.1720   -24.3900 cc         1 WMV       0.366600
      5 C05        -25.8190    29.6160   -25.5050 cd         1 WMV       0.377000
      6 C06        -25.1410    30.7010   -26.2480 c3         1 WMV      -0.143400
      7 C07        -27.0610    29.4830   -24.9550 cc         1 WMV      -0.444200
      8 C08        -28.1220    30.5040   -25.0410 c          1 WMV       0.721700
      9 C12        -31.5800    30.4250   -24.0310 c3         1 WMV      -0.092400
     10 C14        -34.0920    30.4200   -23.7270 c6         1 WMV      -0.071400
     11 C16        -35.2960    31.3800   -25.7160 c6         1 WMV      -0.073400
     12 C18        -32.9910    32.2180   -25.1390 c6         1 WMV      -0.071400
     13 N03        -25.8930    27.6020   -24.5950 nd         1 WMV      -0.367300
     14 N10        -29.1340    30.3850   -24.1650 ns         1 WMV      -0.571900
     15 O04        -25.1300    28.5050   -25.2810 os         1 WMV      -0.114100
     16 O09        -28.0590    31.3950   -25.8810 o          1 WMV      -0.616100
     17 H1         -32.7240    31.9210   -23.0280 hc         1 WMV       0.043700
     18 H2         -35.5610    29.3760   -24.9260 hc         1 WMV       0.038450
     19 H3         -34.0290    29.6150   -25.7200 hc         1 WMV       0.038450
     20 H4         -34.8300    33.0760   -24.4430 hc         1 WMV       0.038450
     21 H5         -34.5300    33.3650   -26.1390 hc         1 WMV       0.038450
     22 H6         -27.8200    26.3940   -23.5190 hc         1 WMV       0.059033
     23 H7         -28.3050    27.8630   -22.6870 hc         1 WMV       0.059033
     24 H8         -29.0490    27.4440   -24.2330 hc         1 WMV       0.059033
     25 H9         -24.1050    30.4420   -26.4550 hc         1 WMV       0.074367
     26 H10        -25.6490    30.8950   -27.1920 hc         1 WMV       0.074367
     27 H11        -25.1610    31.6280   -25.6760 hc         1 WMV       0.074367
     28 H14        -31.6600    29.7650   -24.9020 hc         1 WMV       0.042200
     29 H15        -31.5130    29.7750   -23.1520 hc         1 WMV       0.042200
     30 H16        -33.8280    29.5020   -23.1950 hc         1 WMV       0.040450
     31 H17        -34.8130    30.9400   -23.0890 hc         1 WMV       0.040450
     32 H18        -36.3300    31.5470   -25.4050 hc         1 WMV       0.037200
     33 H19        -35.3210    31.2510   -26.8010 hc         1 WMV       0.037200
     34 H20        -32.6200    31.7130   -26.0390 hc         1 WMV       0.040450
     35 H21        -32.3700    33.1090   -25.0170 hc         1 WMV       0.040450
     36 H22        -29.0610    29.7090   -23.4240 hn         1 WMV       0.311500
     37 C11        -30.3000    31.2430   -24.1410 c3         1 WMV       0.098000
     38 C01        -28.1140    27.4310   -23.6710 c3         1 WMV      -0.140400
     39 H12        -30.2310    31.9400   -23.2990 h1         1 WMV       0.056700
     40 H13        -30.2950    31.8410   -25.0490 h1         1 WMV       0.056700
@<TRIPOS>BOND
     1     1     9 1   
     2     1    10 1   
     3     1    12 1   
     4     1    17 1   
     5     2    10 1   
     6     2    11 1   
     7     2    18 1   
     8     2    19 1   
     9     3    11 1   
    10     3    12 1   
    11     3    20 1   
    12     3    21 1   
    13     4     7 1   
    14     4    13 2   
    15     4    38 1   
    16     5     6 1   
    17     5     7 2   
    18     5    15 1   
    19     6    25 1   
    20     6    26 1   
    21     6    27 1   
    22     7     8 1   
    23     8    14 1   
    24     8    16 2   
    25     9    28 1   
    26     9    29 1   
    27     9    37 1   
    28    10    30 1   
    29    10    31 1   
    30    11    32 1   
    31    11    33 1   
    32    12    34 1   
    33    12    35 1   
    34    13    15 1   
    35    14    36 1   
    36    14    37 1   
    37    22    38 1   
    38    23    38 1   
    39    24    38 1   
    40    37    39 1   
    41    37    40 1   
@<TRIPOS>SUBSTRUCTURE
     1 WMV         1 TEMP              0 ****  ****    0 ROOT
