@<TRIPOS>MOLECULE
WMW
   37    38     1     0     0
SMALL
No Charge or Current Charge


@<TRIPOS>ATOM
      1 C10          3.7380     6.4500    16.7660 ca         1 WMW      -0.075000
      2 C13          6.1790     8.1360    22.5880 ca         1 WMW      -0.038000
      3 C20          6.4150     8.1640    21.2010 ca         1 WMW      -0.210000
      4 C21          6.6300     7.7310    16.7980 c3         1 WMW      -0.063400
      5 C23          6.8100     8.0140    18.3140 c3         1 WMW       0.162600
      6 C24          7.4680     5.3160    16.6990 c3         1 WMW      -0.066100
      7 C1           6.2580     6.2530    16.3910 c3         1 WMW      -0.154700
      8 C2           4.9600     5.8380    17.1280 ca         1 WMW       0.015700
      9 C3           5.9930     6.1410    14.8500 c          1 WMW       0.720000
     10 C4           4.9530     4.9170    18.2050 ca         1 WMW      -0.116000
     11 C5           3.8040     7.8150    22.1700 ca         1 WMW       0.214000
     12 C6           3.7640     4.6240    18.8940 ca         1 WMW       0.124000
     13 C7           4.0380     7.8470    20.7880 ca         1 WMW      -0.189000
     14 C8           2.5560     5.2410    18.5160 ca         1 WMW       0.102000
     15 C9           4.8720     7.9590    23.0760 ca         1 WMW       0.033000
     16 O11          6.1380     7.1280    14.1420 o          1 WMW      -0.712500
     17 C12          2.5470     6.1510    17.4490 ca         1 WMW      -0.106000
     18 C14          5.3400     8.0170    20.2980 ca         1 WMW       0.201100
     19 Cl16         3.8230     3.4920    20.2470 cl         1 WMW      -0.225000
     20 O17          5.6030     5.0690    14.4080 o          1 WMW      -0.712500
     21 Cl18         1.0490     4.9070    19.3710 cl         1 WMW      -0.219000
     22 O22          5.5120     8.0170    18.9320 os         1 WMW      -0.357100
     23 H27          3.7100     7.1760    15.9570 ha         1 WMW       0.138000
     24 H29          7.0070     8.2490    23.2840 ha         1 WMW       0.121000
     25 H31          7.4330     8.3030    20.8470 ha         1 WMW       0.123000
     26 H33          7.5640     8.0100    16.2950 hc         1 WMW       0.067200
     27 H32          5.8680     8.4240    16.4200 hc         1 WMW       0.067200
     28 H35          7.4610     7.2550    18.7640 h1         1 WMW       0.034700
     29 H34          7.2890     8.9930    18.4460 h1         1 WMW       0.034700
     30 H37          8.3380     5.6040    16.0960 hc         1 WMW       0.024033
     31 H38          7.7710     5.3550    17.7510 hc         1 WMW       0.024033
     32 H36          7.2300     4.2730    16.4580 hc         1 WMW       0.024033
     33 H25          5.8640     4.4340    18.5390 ha         1 WMW       0.122000
     34 H26          3.2100     7.7340    20.0960 ha         1 WMW       0.146000
     35 H28          1.6180     6.6360    17.1580 ha         1 WMW       0.117000
     36 F15          2.5410     7.6440    22.6230 f          1 WMW      -0.171000
     37 Cl19         4.5940     7.9220    24.8180 cl         1 WMW      -0.203000
@<TRIPOS>BOND
     1     1     8 ar  
     2     1    17 ar  
     3     1    23 1   
     4     2     3 ar  
     5     2    15 ar  
     6     2    24 1   
     7     3    18 ar  
     8     3    25 1   
     9     4     5 1   
    10     4     7 1   
    11     4    26 1   
    12     4    27 1   
    13     5    22 1   
    14     5    28 1   
    15     5    29 1   
    16     6     7 1   
    17     6    30 1   
    18     6    31 1   
    19     6    32 1   
    20     7     8 1   
    21     7     9 1   
    22     8    10 ar  
    23     9    16 1   
    24     9    20 1   
    25    10    12 ar  
    26    10    33 1   
    27    11    13 ar  
    28    11    15 ar  
    29    11    36 1   
    30    12    14 ar  
    31    12    19 1   
    32    13    18 ar  
    33    13    34 1   
    34    14    17 ar  
    35    14    21 1   
    36    15    37 1   
    37    17    35 1   
    38    18    22 1   
@<TRIPOS>SUBSTRUCTURE
     1 WMW         1 TEMP              0 ****  ****    0 ROOT
