@<TRIPOS>MOLECULE
WMW
   37    38     1     0     0
SMALL
abcg2


@<TRIPOS>ATOM
      1 C10          3.8300     6.4710    17.2610 ca         1 WMW      -0.075000
      2 C13          5.6820     7.1050    22.0620 ca         1 WMW      -0.038000
      3 C20          6.1790     7.5570    20.8460 ca         1 WMW      -0.210000
      4 C21          6.6060     7.8080    16.6720 c3         1 WMW      -0.063400
      5 C23          6.9120     8.2720    18.0900 c3         1 WMW       0.162600
      6 C24          7.5030     5.4630    16.7490 c3         1 WMW      -0.066100
      7 C1           6.2420     6.3120    16.5200 c3         1 WMW      -0.154700
      8 C2           5.1110     5.9480    17.4740 ca         1 WMW       0.015700
      9 C3           5.7700     6.0000    15.0510 c          1 WMW       0.720000
     10 C4           5.3020     5.1370    18.5850 ca         1 WMW      -0.116000
     11 C5           3.5510     8.0420    21.5430 ca         1 WMW       0.214000
     12 C6           4.2580     4.8610    19.4650 ca         1 WMW       0.124000
     13 C7           4.0160     8.4950    20.3300 ca         1 WMW      -0.189000
     14 C8           2.9970     5.3970    19.2440 ca         1 WMW       0.102000
     15 C9           4.3620     7.3310    22.4190 ca         1 WMW       0.033000
     16 O11          5.8720     6.9100    14.1940 o          1 WMW      -0.712500
     17 C12          2.7880     6.2030    18.1280 ca         1 WMW      -0.106000
     18 C14          5.3390     8.2350    19.9600 ca         1 WMW       0.201100
     19 CL16         4.5800     3.8520    20.8480 cl         1 WMW      -0.225000
     20 O17          5.3490     4.8340    14.8490 o          1 WMW      -0.712500
     21 CL18         1.6800     5.1120    20.3460 cl         1 WMW      -0.219000
     22 O22          5.6840     8.6770    18.7310 os         1 WMW      -0.357100
     23 H27          3.6470     7.1070    16.4040 ha         1 WMW       0.138000
     24 H29          6.3280     6.5610    22.7370 ha         1 WMW       0.121000
     25 H31          7.2120     7.3600    20.6050 ha         1 WMW       0.123000
     26 H33          7.4830     8.0010    16.0520 hc         1 WMW       0.067200
     27 H32          5.8060     8.4310    16.2730 hc         1 WMW       0.067200
     28 H35          7.4060     7.4940    18.6650 h1         1 WMW       0.034700
     29 H34          7.5640     9.1460    18.0770 h1         1 WMW       0.034700
     30 H37          8.2490     5.7150    15.9930 hc         1 WMW       0.024033
     31 H38          7.9510     5.6440    17.7280 hc         1 WMW       0.024033
     32 H36          7.2770     4.4010    16.6690 hc         1 WMW       0.024033
     33 H25          6.2690     4.7080    18.8010 ha         1 WMW       0.122000
     34 H26          3.3520     9.0160    19.6560 ha         1 WMW       0.146000
     35 H28          1.8060     6.6230    17.9560 ha         1 WMW       0.117000
     36 F15          2.2660     8.2830    21.8750 f          1 WMW      -0.171000
     37 CL19         3.7200     6.7310    23.9220 cl         1 WMW      -0.203000
@<TRIPOS>BOND
     1     1     8 ar  
     2     1    17 ar  
     3     1    23 1   
     4     2     3 ar  
     5     2    15 ar  
     6     2    24 1   
     7     3    18 ar  
     8     3    25 1   
     9     4     5 1   
    10     4     7 1   
    11     4    26 1   
    12     4    27 1   
    13     5    22 1   
    14     5    28 1   
    15     5    29 1   
    16     6     7 1   
    17     6    30 1   
    18     6    31 1   
    19     6    32 1   
    20     7     8 1   
    21     7     9 1   
    22     8    10 ar  
    23     9    16 1   
    24     9    20 1   
    25    10    12 ar  
    26    10    33 1   
    27    11    13 ar  
    28    11    15 ar  
    29    11    36 1   
    30    12    14 ar  
    31    12    19 1   
    32    13    18 ar  
    33    13    34 1   
    34    14    17 ar  
    35    14    21 1   
    36    15    37 1   
    37    17    35 1   
    38    18    22 1   
@<TRIPOS>SUBSTRUCTURE
     1 WMW         1 TEMP              0 ****  ****    0 ROOT
