@<TRIPOS>MOLECULE
WMY
   22    23     1     0     0
SMALL
No Charge or Current Charge


@<TRIPOS>ATOM
      1 C13        -27.2420    22.7060     0.1000 cc         1 WMY       0.192900
      2 C02        -34.2350    21.9830    -2.8000 ca         1 WMY       0.109000
      3 C03        -35.4940    21.9550    -2.1830 ca         1 WMY      -0.080000
      4 C04        -35.5890    22.0740    -0.7880 ca         1 WMY      -0.109000
      5 C05        -34.4260    22.2210    -0.0120 ca         1 WMY      -0.054000
      6 C06        -33.1460    22.2510    -0.6170 ca         1 WMY      -0.146600
      7 C07        -33.0680    22.1300    -2.0300 ca         1 WMY      -0.083000
      8 C08        -31.9160    22.4120     0.2590 c          1 WMY       0.619700
      9 C11        -29.4450    22.5640     0.1400 cd         1 WMY       0.388900
     10 C12        -28.3280    22.5610    -0.7050 cd         1 WMY      -0.285000
     11 N10        -30.7020    22.4330    -0.3940 ns         1 WMY      -0.481400
     12 N15        -29.1210    22.7000     1.4100 nc         1 WMY      -0.360300
     13 O09        -32.0100    22.5150     1.4740 o          1 WMY      -0.524100
     14 O14        -27.6780    22.7940     1.4000 os         1 WMY      -0.067700
     15 H1         -26.1790    22.7580    -0.0940 h4         1 WMY       0.058100
     16 H2         -36.3930    21.8420    -2.7850 ha         1 WMY       0.134000
     17 H3         -36.5640    22.0530    -0.3060 ha         1 WMY       0.126000
     18 H4         -34.5260    22.3110     1.0690 ha         1 WMY       0.142000
     19 H5         -32.1160    22.1460    -2.5520 ha         1 WMY       0.129000
     20 H6         -28.3220    22.4650    -1.7840 ha         1 WMY       0.154000
     21 H7         -30.7670    22.3380    -1.3950 hn         1 WMY       0.330500
     22 Cl1        -34.1150    21.8350    -4.5480 cl         1 WMY      -0.194000
@<TRIPOS>BOND
     1     1    10 2   
     2     1    14 1   
     3     1    15 1   
     4     2     3 ar  
     5     2     7 ar  
     6     2    22 1   
     7     3     4 ar  
     8     3    16 1   
     9     4     5 ar  
    10     4    17 1   
    11     5     6 ar  
    12     5    18 1   
    13     6     7 ar  
    14     6     8 1   
    15     7    19 1   
    16     8    11 1   
    17     8    13 2   
    18     9    10 1   
    19     9    11 1   
    20     9    12 2   
    21    10    20 1   
    22    11    21 1   
    23    12    14 1   
@<TRIPOS>SUBSTRUCTURE
     1 WMY         1 TEMP              0 ****  ****    0 ROOT
