@<TRIPOS>MOLECULE
WMY
   22    23     1     0     0
SMALL
abcg2


@<TRIPOS>ATOM
      1 C13        -27.3140    22.5850     0.2210 cc         1 WMY       0.192900
      2 C02        -34.3040    22.2560    -2.7740 ca         1 WMY       0.109000
      3 C03        -35.4740    21.8960    -2.1240 ca         1 WMY      -0.080000
      4 C04        -35.4650    21.7840    -0.7410 ca         1 WMY      -0.109000
      5 C05        -34.3080    22.0310    -0.0210 ca         1 WMY      -0.054000
      6 C06        -33.1340    22.3720    -0.6870 ca         1 WMY      -0.146600
      7 C07        -33.1320    22.4910    -2.0740 ca         1 WMY      -0.083000
      8 C08        -31.9170    22.6460     0.1340 c          1 WMY       0.619700
      9 C11        -29.4700    22.5670     0.0360 cd         1 WMY       0.388900
     10 C12        -28.2750    22.1940    -0.6390 cd         1 WMY      -0.285000
     11 N10        -30.7320    22.3660    -0.4820 ns         1 WMY      -0.481400
     12 N15        -29.2250    23.1240     1.1900 nc         1 WMY      -0.360300
     13 O09        -31.9920    23.0740     1.2650 o          1 WMY      -0.524100
     14 O14        -27.8610    23.1350     1.3010 os         1 WMY      -0.067700
     15 H1         -26.2370    22.5330     0.1890 h4         1 WMY       0.058100
     16 H2         -36.3800    21.7090    -2.6840 ha         1 WMY       0.134000
     17 H3         -36.3730    21.5020    -0.2250 ha         1 WMY       0.126000
     18 H4         -34.3150    21.9480     1.0570 ha         1 WMY       0.142000
     19 H5         -32.2440    22.7930    -2.6130 ha         1 WMY       0.129000
     20 H6         -28.1700    21.7180    -1.5990 ha         1 WMY       0.154000
     21 H7         -30.7550    21.8990    -1.3760 hn         1 WMY       0.330500
     22 CL1        -34.3050    22.4250    -4.4970 cl         1 WMY      -0.194000
@<TRIPOS>BOND
     1     1    10 2   
     2     1    14 1   
     3     1    15 1   
     4     2     3 ar  
     5     2     7 ar  
     6     2    22 1   
     7     3     4 ar  
     8     3    16 1   
     9     4     5 ar  
    10     4    17 1   
    11     5     6 ar  
    12     5    18 1   
    13     6     7 ar  
    14     6     8 1   
    15     7    19 1   
    16     8    11 1   
    17     8    13 2   
    18     9    10 1   
    19     9    11 1   
    20     9    12 2   
    21    10    20 1   
    22    11    21 1   
    23    12    14 1   
@<TRIPOS>SUBSTRUCTURE
     1 WMY         1 TEMP              0 ****  ****    0 ROOT
