@<TRIPOS>MOLECULE
WN0
   43    46     1     0     0
SMALL
No Charge or Current Charge


@<TRIPOS>ATOM
      1 C10          2.5860     5.3250    19.9360 ca         1 WN0      -0.057000
      2 C11          2.6380     5.3220    17.4860 ca         1 WN0      -0.084000
      3 C13          7.1390     8.6250    21.5790 c3         1 WN0      -0.063400
      4 C15          2.1670     4.7800    18.7050 ca         1 WN0      -0.139000
      5 C16          4.9520     6.1710    23.1520 c3         1 WN0      -0.071400
      6 C17          7.1630     7.1770    22.1360 c3         1 WN0      -0.076400
      7 C20          6.2900     6.9200    23.3940 c3         1 WN0      -0.067400
      8 N1           4.8090     7.9820    19.0210 na         1 WN0      -0.105700
      9 C2           3.9400     6.9350    18.7270 ca         1 WN0      -0.032200
     10 C3           4.9090     8.1530    20.4210 cc         1 WN0      -0.043300
     11 C4           5.4950     8.7550    17.9630 c3         1 WN0       0.090600
     12 C5           3.4750     6.4090    19.9020 ca         1 WN0      -0.082800
     13 C6           3.5330     6.4130    17.4870 ca         1 WN0      -0.140000
     14 C7           4.0790     7.1800    20.9650 cd         1 WN0      -0.119400
     15 C8           5.7550     9.1650    21.1510 c3         1 WN0      -0.019200
     16 C9           6.9070     8.2320    17.6210 c3         1 WN0      -0.135700
     17 C12          3.8380     6.9740    22.4410 c3         1 WN0       0.001800
     18 C14          6.9380     6.7950    17.1810 cc         1 WN0       0.399800
     19 N18          6.6900     6.3340    15.9230 na         1 WN0      -0.229700
     20 N19          7.2490     5.7510    17.9200 nd         1 WN0      -0.370000
     21 N21          6.8260     4.9850    15.8780 nc         1 WN0      -0.197800
     22 N22          7.1600     4.6530    17.0960 nd         1 WN0      -0.036000
     23 H30          2.2300     4.9150    20.8780 ha         1 WN0       0.114000
     24 H31          2.3080     4.8950    16.5410 ha         1 WN0       0.110000
     25 H35          7.8150     8.6660    20.7180 hc         1 WN0       0.032700
     26 H34          7.5640     9.3050    22.3260 hc         1 WN0       0.032700
     27 H36          1.4780     3.9380    18.6930 ha         1 WN0       0.111000
     28 H37          4.5640     5.8630    24.1310 hc         1 WN0       0.041700
     29 H38          5.1420     5.2440    22.5970 hc         1 WN0       0.041700
     30 H39          6.8980     6.4670    21.3430 hc         1 WN0       0.050700
     31 H40          8.2050     6.9470    22.3950 hc         1 WN0       0.050700
     32 H42          6.1000     7.8630    23.9220 hc         1 WN0       0.032200
     33 H43          6.8810     6.3080    24.0870 hc         1 WN0       0.032200
     34 H23          4.8760     8.7560    17.0580 h1         1 WN0       0.060200
     35 H24          5.5720     9.7990    18.2900 h1         1 WN0       0.060200
     36 H25          3.8900     6.8250    16.5480 ha         1 WN0       0.099000
     37 H26          5.8960    10.0650    20.5400 hc         1 WN0       0.048700
     38 H27          5.2210     9.5040    22.0460 hc         1 WN0       0.048700
     39 H29          7.3340     8.8610    16.8320 hc         1 WN0       0.077200
     40 H28          7.5580     8.3550    18.4910 hc         1 WN0       0.077200
     41 H33          3.7080     7.9370    22.9480 hc         1 WN0       0.040200
     42 H32          2.8900     6.4430    22.5840 hc         1 WN0       0.040200
     43 H41          6.4400     6.8820    15.1080 hn         1 WN0       0.380000
@<TRIPOS>BOND
     1     1     4 ar  
     2     1    12 ar  
     3     1    23 1   
     4     2     4 ar  
     5     2    13 ar  
     6     2    24 1   
     7     3     6 1   
     8     3    15 1   
     9     3    25 1   
    10     3    26 1   
    11     4    27 1   
    12     5     7 1   
    13     5    17 1   
    14     5    28 1   
    15     5    29 1   
    16     6     7 1   
    17     6    30 1   
    18     6    31 1   
    19     7    32 1   
    20     7    33 1   
    21     8     9 1   
    22     8    10 1   
    23     8    11 1   
    24     9    12 ar  
    25     9    13 ar  
    26    10    14 2   
    27    10    15 1   
    28    11    16 1   
    29    11    34 1   
    30    11    35 1   
    31    12    14 1   
    32    13    36 1   
    33    14    17 1   
    34    15    37 1   
    35    15    38 1   
    36    16    18 1   
    37    16    39 1   
    38    16    40 1   
    39    17    41 1   
    40    17    42 1   
    41    18    19 1   
    42    18    20 2   
    43    19    21 1   
    44    19    43 1   
    45    20    22 1   
    46    21    22 2   
@<TRIPOS>SUBSTRUCTURE
     1 WN0         1 TEMP              0 ****  ****    0 ROOT
