@<TRIPOS>MOLECULE
WN0
   43    46     1     0     0
SMALL
abcg2


@<TRIPOS>ATOM
      1 C10          2.6100     5.3010    19.8820 ca         1 WN0      -0.057000
      2 C11          2.6890     5.3520    17.4550 ca         1 WN0      -0.084000
      3 C13          7.1090     8.6120    21.4910 c3         1 WN0      -0.063400
      4 C15          2.2200     4.7880    18.6530 ca         1 WN0      -0.139000
      5 C16          5.0040     6.1980    23.1670 c3         1 WN0      -0.071400
      6 C17          7.1600     7.1970    22.0730 c3         1 WN0      -0.076400
      7 C20          6.3220     6.9640    23.3470 c3         1 WN0      -0.067400
      8 N1           4.8020     7.9910    19.0070 na         1 WN0      -0.105700
      9 C2           3.9590     6.9420    18.6960 ca         1 WN0      -0.032200
     10 C3           4.8610     8.1200    20.3950 cc         1 WN0      -0.043300
     11 C4           5.5380     8.7660    18.0310 c3         1 WN0       0.090600
     12 C5           3.4860     6.3930    19.9190 ca         1 WN0      -0.082800
     13 C6           3.5600     6.4330    17.4600 ca         1 WN0      -0.140000
     14 C7           4.0690     7.1620    20.9800 cd         1 WN0      -0.119400
     15 C8           5.7020     9.1190    21.1100 c3         1 WN0      -0.019200
     16 C9           6.9390     8.2030    17.7080 c3         1 WN0      -0.135700
     17 C12          3.8700     6.9510    22.4500 c3         1 WN0       0.001800
     18 C14          6.9110     6.7890    17.2590 cc         1 WN0       0.399800
     19 N18          6.6690     6.3650    16.0090 na         1 WN0      -0.229700
     20 N19          7.0650     5.7140    18.0120 nd         1 WN0      -0.370000
     21 N21          6.6620     5.0260    15.9850 nc         1 WN0      -0.197800
     22 N22          6.9020     4.6460    17.1930 nd         1 WN0      -0.036000
     23 H30          2.2410     4.8620    20.8010 ha         1 WN0       0.114000
     24 H31          2.3690     4.9360    16.5080 ha         1 WN0       0.110000
     25 H35          7.7600     8.6500    20.6150 hc         1 WN0       0.032700
     26 H34          7.5300     9.3170    22.2140 hc         1 WN0       0.032700
     27 H36          1.5450     3.9420    18.6130 ha         1 WN0       0.111000
     28 H37          4.6390     5.9160    24.1600 hc         1 WN0       0.041700
     29 H38          5.2050     5.2630    22.6320 hc         1 WN0       0.041700
     30 H39          6.8590     6.4780    21.3060 hc         1 WN0       0.050700
     31 H40          8.2090     6.9810    22.2930 hc         1 WN0       0.050700
     32 H42          6.1140     7.9230    23.8340 hc         1 WN0       0.032200
     33 H43          6.9260     6.3960    24.0590 hc         1 WN0       0.032200
     34 H23          4.9440     8.8190    17.1200 h1         1 WN0       0.060200
     35 H24          5.6590     9.7840    18.3970 h1         1 WN0       0.060200
     36 H25          3.9130     6.8550    16.5290 ha         1 WN0       0.099000
     37 H26          5.7980    10.0410    20.5330 hc         1 WN0       0.048700
     38 H27          5.1690     9.3840    22.0260 hc         1 WN0       0.048700
     39 H29          7.3840     8.8270    16.9310 hc         1 WN0       0.077200
     40 H28          7.5730     8.2610    18.5900 hc         1 WN0       0.077200
     41 H33          3.7260     7.9150    22.9490 hc         1 WN0       0.040200
     42 H32          2.9420     6.3920    22.5970 hc         1 WN0       0.040200
     43 H41          6.4930     6.9010    15.1700 hn         1 WN0       0.380000
@<TRIPOS>BOND
     1     1     4 ar  
     2     1    12 ar  
     3     1    23 1   
     4     2     4 ar  
     5     2    13 ar  
     6     2    24 1   
     7     3     6 1   
     8     3    15 1   
     9     3    25 1   
    10     3    26 1   
    11     4    27 1   
    12     5     7 1   
    13     5    17 1   
    14     5    28 1   
    15     5    29 1   
    16     6     7 1   
    17     6    30 1   
    18     6    31 1   
    19     7    32 1   
    20     7    33 1   
    21     8     9 1   
    22     8    10 1   
    23     8    11 1   
    24     9    12 ar  
    25     9    13 ar  
    26    10    14 2   
    27    10    15 1   
    28    11    16 1   
    29    11    34 1   
    30    11    35 1   
    31    12    14 1   
    32    13    36 1   
    33    14    17 1   
    34    15    37 1   
    35    15    38 1   
    36    16    18 1   
    37    16    39 1   
    38    16    40 1   
    39    17    41 1   
    40    17    42 1   
    41    18    19 1   
    42    18    20 2   
    43    19    21 1   
    44    19    43 1   
    45    20    22 1   
    46    21    22 2   
@<TRIPOS>SUBSTRUCTURE
     1 WN0         1 TEMP              0 ****  ****    0 ROOT
