@<TRIPOS>MOLECULE
WN1
   30    31     1     0     0
SMALL
No Charge or Current Charge


@<TRIPOS>ATOM
      1 C13        -29.7410    23.2950     1.6890 ca         1 WN1      -0.086000
      2 C15        -27.4170    23.7930     1.1400 ca         1 WN1      -0.099000
      3 C17        -29.0320    23.3940    -0.6330 ca         1 WN1       0.130000
      4 C01        -33.4540    22.3180    -4.7900 c3         1 WN1       0.146900
      5 C03        -34.7520    22.0840    -2.6990 ca         1 WN1       0.135100
      6 C04        -35.9990    21.8240    -2.1110 ca         1 WN1      -0.123000
      7 C05        -36.1380    21.8270    -0.7150 ca         1 WN1      -0.085000
      8 C06        -35.0270    22.0920     0.1010 ca         1 WN1      -0.092000
      9 C07        -33.7570    22.3580    -0.4630 ca         1 WN1      -0.116600
     10 C08        -33.6320    22.3510    -1.8780 ca         1 WN1      -0.179000
     11 C09        -32.5780    22.6400     0.4600 c          1 WN1       0.617700
     12 C12        -30.0580    23.1910     0.3140 ca         1 WN1      -0.070000
     13 C14        -28.4270    23.5940     2.0950 ca         1 WN1      -0.108000
     14 C16        -27.7210    23.6920    -0.2270 ca         1 WN1      -0.133000
     15 F18        -29.3040    23.3020    -1.9550 f          1 WN1      -0.184000
     16 N11        -31.3650    22.8920    -0.1730 ns         1 WN1      -0.151000
     17 O10        -32.7110    22.6410     1.6790 o          1 WN1      -0.572100
     18 H1         -30.4910    23.1480     2.4600 ha         1 WN1       0.136000
     19 H2         -26.4020    24.0240     1.4580 ha         1 WN1       0.119000
     20 H3         -33.6240    22.2540    -5.8720 h1         1 WN1       0.042367
     21 H4         -33.0720    23.3220    -4.5650 h1         1 WN1       0.042367
     22 H5         -32.6880    21.5790    -4.5220 h1         1 WN1       0.042367
     23 H6         -36.8600    21.6180    -2.7420 ha         1 WN1       0.130000
     24 H7         -37.1070    21.6250    -0.2650 ha         1 WN1       0.121000
     25 H8         -35.1590    22.0900     1.1820 ha         1 WN1       0.138000
     26 H9         -32.6710    22.5510    -2.3400 ha         1 WN1       0.118000
     27 H10        -28.1920    23.6710     3.1540 ha         1 WN1       0.121000
     28 H11        -26.9450    23.8450    -0.9730 ha         1 WN1       0.132000
     29 H12        -31.4160    22.8550    -1.1820 hn         1 WN1       0.164000
     30 O02        -34.6790    22.0660    -4.0770 os         1 WN1      -0.340100
@<TRIPOS>BOND
     1     1    12 ar  
     2     1    13 ar  
     3     1    18 1   
     4     2    13 ar  
     5     2    14 ar  
     6     2    19 1   
     7     3    12 ar  
     8     3    14 ar  
     9     3    15 1   
    10     4    20 1   
    11     4    21 1   
    12     4    22 1   
    13     4    30 1   
    14     5     6 ar  
    15     5    10 ar  
    16     5    30 1   
    17     6     7 ar  
    18     6    23 1   
    19     7     8 ar  
    20     7    24 1   
    21     8     9 ar  
    22     8    25 1   
    23     9    10 ar  
    24     9    11 1   
    25    10    26 1   
    26    11    16 1   
    27    11    17 2   
    28    12    16 1   
    29    13    27 1   
    30    14    28 1   
    31    16    29 1   
@<TRIPOS>SUBSTRUCTURE
     1 WN1         1 TEMP              0 ****  ****    0 ROOT
