@<TRIPOS>MOLECULE
WN1
   30    31     1     0     0
SMALL
bcc


@<TRIPOS>ATOM
      1 C13        -29.8960    24.1660     1.0690 ca         1 WN1      -0.104000
      2 C15        -27.5400    23.7230     1.3120 ca         1 WN1      -0.117000
      3 C17        -28.8820    22.3560    -0.1030 ca         1 WN1       0.094900
      4 C01        -33.9210    23.2260    -4.6580 c3         1 WN1       0.123700
      5 C03        -34.7780    22.2190    -2.6870 ca         1 WN1       0.135100
      6 C04        -35.8040    21.4880    -2.0830 ca         1 WN1      -0.141000
      7 C05        -35.7190    21.1540    -0.7440 ca         1 WN1      -0.103000
      8 C06        -34.6210    21.5350     0.0160 ca         1 WN1      -0.110000
      9 C07        -33.5910    22.2440    -0.5870 ca         1 WN1      -0.116600
     10 C08        -33.6690    22.5940    -1.9360 ca         1 WN1      -0.197000
     11 C09        -32.4240    22.6400     0.2560 c          1 WN1       0.684700
     12 C12        -30.0250    23.0900     0.1950 ca         1 WN1       0.022600
     13 C14        -28.6640    24.4740     1.6280 ca         1 WN1      -0.126000
     14 C16        -27.6460    22.6570     0.4300 ca         1 WN1      -0.151000
     15 F18        -28.9960    21.3210    -0.9500 f          1 WN1      -0.148900
     16 N11        -31.2410    22.7420    -0.4070 ns         1 WN1      -0.477100
     17 O10        -32.5360    22.8390     1.4520 o          1 WN1      -0.572100
     18 H1         -30.7580    24.7730     1.3050 ha         1 WN1       0.154000
     19 H2         -26.5790    23.9650     1.7440 ha         1 WN1       0.137000
     20 H3         -34.2520    23.3440    -5.6870 h1         1 WN1       0.042367
     21 H4         -33.7550    24.2160    -4.2270 h1         1 WN1       0.042367
     22 H5         -32.9780    22.6740    -4.6530 h1         1 WN1       0.042367
     23 H6         -36.6630    21.1900    -2.6700 ha         1 WN1       0.148000
     24 H7         -36.5200    20.5880    -0.2860 ha         1 WN1       0.139000
     25 H8         -34.5640    21.2710     1.0630 ha         1 WN1       0.156000
     26 H9         -32.8830    23.1860    -2.3850 ha         1 WN1       0.136000
     27 H10        -28.5840    25.3120     2.3070 ha         1 WN1       0.139000
     28 H11        -26.7860    22.0560     0.1660 ha         1 WN1       0.150000
     29 H12        -31.1970    22.3730    -1.3450 hn         1 WN1       0.330500
     30 O02        -34.9470    22.5210    -3.9860 os         1 WN1      -0.316900
@<TRIPOS>BOND
     1     1    12 ar  
     2     1    13 ar  
     3     1    18 1   
     4     2    13 ar  
     5     2    14 ar  
     6     2    19 1   
     7     3    12 ar  
     8     3    14 ar  
     9     3    15 1   
    10     4    20 1   
    11     4    21 1   
    12     4    22 1   
    13     4    30 1   
    14     5     6 ar  
    15     5    10 ar  
    16     5    30 1   
    17     6     7 ar  
    18     6    23 1   
    19     7     8 ar  
    20     7    24 1   
    21     8     9 ar  
    22     8    25 1   
    23     9    10 ar  
    24     9    11 1   
    25    10    26 1   
    26    11    16 1   
    27    11    17 2   
    28    12    16 1   
    29    13    27 1   
    30    14    28 1   
    31    16    29 1   
@<TRIPOS>SUBSTRUCTURE
     1 WN1         1 TEMP              0 ****  ****    0 ROOT
