@<TRIPOS>MOLECULE
WN4
   30    31     1     0     0
SMALL
No Charge or Current Charge


@<TRIPOS>ATOM
      1 C10        -39.1400    22.0290     0.0530 c5         1 WN4       0.074500
      2 C13        -39.8600    21.4850     2.2340 c5         1 WN4       0.139800
      3 C01        -35.1150    22.5540    -5.5420 c3         1 WN4      -0.144400
      4 C02        -34.9320    22.3690    -4.0480 ca         1 WN4       0.391300
      5 C03        -33.6510    22.2600    -3.4800 ca         1 WN4      -0.196000
      6 C04        -33.5260    22.0820    -2.0930 ca         1 WN4      -0.050000
      7 C05        -34.7010    22.0220    -1.3290 ca         1 WN4      -0.182000
      8 C06        -35.9430    22.1420    -1.9830 ca         1 WN4       0.490900
      9 C08        -37.5630    22.1060    -0.0450 c          1 WN4       0.620100
     10 C11        -39.6760    23.3360     0.7380 c5         1 WN4      -0.101400
     11 C12        -40.5790    22.8020     1.8830 c5         1 WN4      -0.115400
     12 N07        -37.2010    22.1000    -1.3740 ns         1 WN4      -0.331900
     13 N14        -39.6710    20.8960     0.8930 n7         1 WN4      -0.813400
     14 N15        -36.0640    22.3080    -3.3140 nb         1 WN4      -0.752000
     15 O09        -36.7690    22.1640     0.8890 o          1 WN4      -0.550100
     16 H1         -39.5420    21.9410    -0.9670 h1         1 WN4       0.060700
     17 H2         -40.4630    20.8400     2.8900 h1         1 WN4       0.064700
     18 H3         -38.8960    21.6710     2.7300 h1         1 WN4       0.064700
     19 H4         -35.9190    23.2660    -5.7600 hc         1 WN4       0.050367
     20 H5         -34.2000    22.9350    -6.0110 hc         1 WN4       0.050367
     21 H6         -35.3670    21.6020    -6.0230 hc         1 WN4       0.050367
     22 H8         -32.5480    21.9920    -1.6250 ha         1 WN4       0.119000
     23 H9         -34.6360    21.8760    -0.2570 ha         1 WN4       0.156000
     24 H10        -38.8620    23.9500     1.1430 hc         1 WN4       0.056200
     25 H11        -40.2310    23.9710     0.0390 hc         1 WN4       0.056200
     26 H12        -40.6340    23.4910     2.7340 hc         1 WN4       0.051200
     27 H13        -41.6050    22.6210     1.5390 hc         1 WN4       0.051200
     28 H14        -37.9660    22.0690    -2.0330 hn         1 WN4       0.161000
     29 H15        -40.6010    20.6370     0.5370 hn         1 WN4       0.406000
     30 H7         -32.7660    22.3100    -4.1080 ha         1 WN4       0.124000
@<TRIPOS>BOND
     1     1     9 1   
     2     1    10 1   
     3     1    13 1   
     4     1    16 1   
     5     2    11 1   
     6     2    13 1   
     7     2    17 1   
     8     2    18 1   
     9     3     4 1   
    10     3    19 1   
    11     3    20 1   
    12     3    21 1   
    13     4     5 ar  
    14     4    14 ar  
    15     5     6 ar  
    16     5    30 1   
    17     6     7 ar  
    18     6    22 1   
    19     7     8 ar  
    20     7    23 1   
    21     8    12 1   
    22     8    14 ar  
    23     9    12 1   
    24     9    15 2   
    25    10    11 1   
    26    10    24 1   
    27    10    25 1   
    28    11    26 1   
    29    11    27 1   
    30    12    28 1   
    31    13    29 1   
@<TRIPOS>SUBSTRUCTURE
     1 WN4         1 TEMP              0 ****  ****    0 ROOT
