@<TRIPOS>MOLECULE
WN4
   30    31     1     0     0
SMALL
abcg2


@<TRIPOS>ATOM
      1 C10        -39.1670    21.6080     0.0950 c5         1 WN4       0.074500
      2 C13        -39.7580    21.8470     2.3390 c5         1 WN4       0.139800
      3 C01        -35.1320    22.9120    -5.3980 c3         1 WN4      -0.144400
      4 C02        -34.9880    22.5550    -3.9500 ca         1 WN4       0.391300
      5 C03        -33.7410    22.4280    -3.3510 ca         1 WN4      -0.196000
      6 C04        -33.6900    22.0770    -2.0100 ca         1 WN4      -0.050000
      7 C05        -34.8560    21.8660    -1.2970 ca         1 WN4      -0.182000
      8 C06        -36.0600    22.0250    -1.9860 ca         1 WN4       0.490900
      9 C08        -37.6690    21.5260    -0.1440 c          1 WN4       0.620100
     10 C11        -39.5670    23.1020     0.3240 c5         1 WN4      -0.101400
     11 C12        -40.3430    23.0730     1.6410 c5         1 WN4      -0.115400
     12 N07        -37.3190    21.8660    -1.4170 ns         1 WN4      -0.331900
     13 N14        -39.5510    20.8630     1.2820 n7         1 WN4      -0.813400
     14 N15        -36.1140    22.3560    -3.2700 nb         1 WN4      -0.752000
     15 O09        -36.8720    21.2350     0.7250 o          1 WN4      -0.550100
     16 H1         -39.6870    21.2040    -0.7770 h1         1 WN4       0.060700
     17 H2         -40.4000    21.4380     3.1200 h1         1 WN4       0.064700
     18 H3         -38.7980    22.0940     2.8000 h1         1 WN4       0.064700
     19 H4         -35.8230    23.7450    -5.5260 hc         1 WN4       0.050367
     20 H5         -34.1760    23.1860    -5.8400 hc         1 WN4       0.050367
     21 H6         -35.5340    22.0690    -5.9630 hc         1 WN4       0.050367
     22 H8         -32.7350    21.9660    -1.5130 ha         1 WN4       0.119000
     23 H9         -34.8290    21.5940    -0.2560 ha         1 WN4       0.156000
     24 H10        -38.6860    23.7410     0.4150 hc         1 WN4       0.056200
     25 H11        -40.1520    23.4890    -0.5090 hc         1 WN4       0.056200
     26 H12        -40.2320    23.9930     2.2150 hc         1 WN4       0.051200
     27 H13        -41.4090    22.9210     1.4570 hc         1 WN4       0.051200
     28 H14        -38.0700    22.0440    -2.0700 hn         1 WN4       0.161000
     29 H15        -40.4330    20.4040     1.0940 hn         1 WN4       0.406000
     30 H7         -32.8370    22.5990    -3.9190 ha         1 WN4       0.124000
@<TRIPOS>BOND
     1     1     9 1   
     2     1    10 1   
     3     1    13 1   
     4     1    16 1   
     5     2    11 1   
     6     2    13 1   
     7     2    17 1   
     8     2    18 1   
     9     3     4 1   
    10     3    19 1   
    11     3    20 1   
    12     3    21 1   
    13     4     5 ar  
    14     4    14 ar  
    15     5     6 ar  
    16     5    30 1   
    17     6     7 ar  
    18     6    22 1   
    19     7     8 ar  
    20     7    23 1   
    21     8    12 1   
    22     8    14 ar  
    23     9    12 1   
    24     9    15 2   
    25    10    11 1   
    26    10    24 1   
    27    10    25 1   
    28    11    26 1   
    29    11    27 1   
    30    12    28 1   
    31    13    29 1   
@<TRIPOS>SUBSTRUCTURE
     1 WN4         1 TEMP              0 ****  ****    0 ROOT
