@<TRIPOS>MOLECULE
WN5
   51    55     1     0     0
SMALL
abcg2


@<TRIPOS>ATOM
      1 C01          5.8450     6.9440    18.5490 ca         1 WN5       0.629300
      2 C02          4.5780     6.3620    18.4000 ca         1 WN5      -0.227500
      3 C05          4.2270     6.7630    20.7610 ca         1 WN5      -0.151300
      4 C06          5.5130     7.3130    20.7930 ca         1 WN5       0.421300
      5 C07          6.1180     7.8240    22.0720 c3         1 WN5      -0.133700
      6 C10          3.9130     5.7820    23.1000 c3         1 WN5      -0.069400
      7 C11          5.0620     6.3630    23.9240 c3         1 WN5      -0.076400
      8 C13          2.1540     4.4100    20.0180 ca         1 WN5      -0.094000
      9 C15         -0.0770     4.4180    19.1050 ca         1 WN5      -0.097000
     10 C16          0.1800     5.6410    18.4950 ca         1 WN5      -0.109500
     11 C17          1.4240     6.2460    18.6410 ca         1 WN5      -0.094000
     12 C18          4.1500     5.8540    17.0940 cc         1 WN5       0.482000
     13 C20          7.9220     7.6380    17.5550 c5         1 WN5       0.149300
     14 C21          7.7870     9.1550    17.5510 c5         1 WN5       0.135600
     15 C23          8.0400     8.4350    15.3220 c5         1 WN5       0.153600
     16 C24          8.6370     7.3730    16.2390 c5         1 WN5      -0.113400
     17 C03          3.7630     6.2630    19.5340 cp         1 WN5       0.062000
     18 N04          6.2930     7.3960    19.7050 nb         1 WN5      -0.766000
     19 C08          3.3820     6.7280    22.0090 c3         1 WN5      -0.023100
     20 C09          6.3210     6.7330    23.1400 c3         1 WN5      -0.068400
     21 C12          2.4210     5.6350    19.4040 cp         1 WN5      -0.074000
     22 C14          0.9130     3.8030    19.8650 ca         1 WN5      -0.109500
     23 O19          6.6300     6.9980    17.4560 os         1 WN5      -0.453300
     24 O22          7.7460     9.5600    16.1730 os         1 WN5      -0.466000
     25 N25          3.8580     4.5720    16.8160 na         1 WN5      -0.214700
     26 N26          3.4820     4.4670    15.5370 nc         1 WN5      -0.203800
     27 N27          3.5510     5.6570    15.0450 nd         1 WN5      -0.051000
     28 N28          3.9620     6.5450    15.9800 nd         1 WN5      -0.370000
     29 H30          7.0790     8.2710    21.8190 hc         1 WN5       0.064200
     30 H29          5.4890     8.6180    22.4870 hc         1 WN5       0.064200
     31 H36          3.0900     5.5430    23.7780 hc         1 WN5       0.041700
     32 H35          4.2220     4.8400    22.6370 hc         1 WN5       0.041700
     33 H38          5.3330     5.6460    24.7050 hc         1 WN5       0.040200
     34 H37          4.6990     7.2600    24.4400 hc         1 WN5       0.040200
     35 H41         -1.0440     3.9450    18.9870 ha         1 WN5       0.118000
     36 H42         -0.5860     6.1260    17.9040 ha         1 WN5       0.120000
     37 H43          1.6250     7.1960    18.1620 ha         1 WN5       0.123500
     38 H44          8.4450     7.2600    18.4290 h1         1 WN5       0.079700
     39 H45          6.8800     9.4920    18.0530 h1         1 WN5       0.059200
     40 H46          8.6530     9.6080    18.0420 h1         1 WN5       0.059200
     41 H48          7.1140     8.0830    14.8560 h1         1 WN5       0.057700
     42 H47          8.7260     8.7630    14.5410 h1         1 WN5       0.057700
     43 H50          9.7060     7.5430    16.3810 hc         1 WN5       0.067700
     44 H49          8.4860     6.3560    15.8830 hc         1 WN5       0.067700
     45 H31          3.3130     7.7390    22.4240 hc         1 WN5       0.055200
     46 H32          2.3690     6.4370    21.7440 hc         1 WN5       0.055200
     47 H33          6.7430     5.8420    22.6650 hc         1 WN5       0.045700
     48 H34          7.0720     7.0930    23.8480 hc         1 WN5       0.045700
     49 H40          0.7200     2.8490    20.3400 ha         1 WN5       0.120000
     50 H51          3.8850     3.7630    17.4210 hn         1 WN5       0.385000
     51 H39          2.9240     3.9300    20.6070 ha         1 WN5       0.123500
@<TRIPOS>BOND
     1     1     2 ar  
     2     1    18 ar  
     3     1    23 1   
     4     2    12 1   
     5     2    17 ar  
     6     3     4 ar  
     7     3    17 ar  
     8     3    19 1   
     9     4     5 1   
    10     4    18 ar  
    11     5    20 1   
    12     5    29 1   
    13     5    30 1   
    14     6     7 1   
    15     6    19 1   
    16     6    31 1   
    17     6    32 1   
    18     7    20 1   
    19     7    33 1   
    20     7    34 1   
    21     8    21 ar  
    22     8    22 ar  
    23     8    51 1   
    24     9    10 ar  
    25     9    22 ar  
    26     9    35 1   
    27    10    11 ar  
    28    10    36 1   
    29    11    21 ar  
    30    11    37 1   
    31    12    25 1   
    32    12    28 2   
    33    13    14 1   
    34    13    16 1   
    35    13    23 1   
    36    13    38 1   
    37    14    24 1   
    38    14    39 1   
    39    14    40 1   
    40    15    16 1   
    41    15    24 1   
    42    15    41 1   
    43    15    42 1   
    44    16    43 1   
    45    16    44 1   
    46    17    21 1   
    47    19    45 1   
    48    19    46 1   
    49    20    47 1   
    50    20    48 1   
    51    22    49 1   
    52    25    26 1   
    53    25    50 1   
    54    26    27 2   
    55    27    28 1   
@<TRIPOS>SUBSTRUCTURE
     1 WN5         1 TEMP              0 ****  ****    0 ROOT
