@<TRIPOS>MOLECULE
WN5
   51    55     1     0     0
SMALL
No Charge or Current Charge


@<TRIPOS>ATOM
      1 C01          6.0990     6.7250    18.6510 ca         1 WN5       0.629300
      2 C02          4.8080     6.2010    18.4580 ca         1 WN5      -0.227500
      3 C05          4.3630     6.6770    20.8080 ca         1 WN5      -0.151300
      4 C06          5.6910     7.1380    20.9000 ca         1 WN5       0.421300
      5 C07          6.2980     7.6390    22.2070 c3         1 WN5      -0.133700
      6 C10          3.8970     5.7520    23.1550 c3         1 WN5      -0.069400
      7 C11          5.0500     6.2770    24.0400 c3         1 WN5      -0.076400
      8 C13          2.1180     4.4470    19.9710 ca         1 WN5      -0.094000
      9 C15         -0.1170     4.6890    19.0390 ca         1 WN5      -0.097000
     10 C16          0.2600     5.9090    18.4540 ca         1 WN5      -0.109500
     11 C17          1.5660     6.3980    18.6270 ca         1 WN5      -0.094000
     12 C18          4.4290     5.7460    17.1200 cc         1 WN5       0.482000
     13 C20          7.8600     7.8460    17.5510 c5         1 WN5       0.149300
     14 C21          7.0030     9.1030    17.1510 c5         1 WN5       0.135600
     15 C23          7.9420     8.2880    15.1980 c5         1 WN5       0.153600
     16 C24          8.7910     7.6520    16.3200 c5         1 WN5      -0.113400
     17 C03          3.9070     6.1840    19.5570 cp         1 WN5       0.062000
     18 N04          6.5330     7.1530    19.8520 nb         1 WN5      -0.766000
     19 C08          3.4530     6.7280    22.0440 c3         1 WN5      -0.023100
     20 C09          6.3800     6.5480    23.3020 c3         1 WN5      -0.068400
     21 C12          2.5150     5.6750    19.3880 cp         1 WN5      -0.074000
     22 C14          0.8120     3.9580    19.7990 ca         1 WN5      -0.109500
     23 O19          7.0050     6.6610    17.6070 os         1 WN5      -0.453300
     24 O22          7.4550     9.4830    15.8300 os         1 WN5      -0.466000
     25 N25          3.6580     4.6560    16.8370 na         1 WN5      -0.214700
     26 N26          3.4600     4.5400    15.5000 nc         1 WN5      -0.203800
     27 N27          4.1000     5.5560    14.9900 nd         1 WN5      -0.051000
     28 N28          4.6950     6.3230    15.9640 nd         1 WN5      -0.370000
     29 H30          7.3140     8.0110    22.0280 hc         1 WN5       0.064200
     30 H29          5.7340     8.5010    22.5820 hc         1 WN5       0.064200
     31 H36          3.0350     5.5560    23.8050 hc         1 WN5       0.041700
     32 H35          4.1750     4.7880    22.7110 hc         1 WN5       0.041700
     33 H38          5.2380     5.5430    24.8330 hc         1 WN5       0.040200
     34 H37          4.7250     7.1960    24.5440 hc         1 WN5       0.040200
     35 H41         -1.1280     4.3100    18.9050 ha         1 WN5       0.118000
     36 H42         -0.4590     6.4750    17.8660 ha         1 WN5       0.120000
     37 H43          1.8500     7.3440    18.1700 ha         1 WN5       0.123500
     38 H44          8.4360     7.9720    18.4780 h1         1 WN5       0.079700
     39 H45          5.9290     8.8790    17.1060 h1         1 WN5       0.059200
     40 H46          7.1540     9.9440    17.8410 h1         1 WN5       0.059200
     41 H48          7.0920     7.6520    14.9100 h1         1 WN5       0.057700
     42 H47          8.5260     8.5390    14.3030 h1         1 WN5       0.057700
     43 H50          9.7360     8.1920    16.4480 hc         1 WN5       0.067700
     44 H49          9.0350     6.6020    16.1230 hc         1 WN5       0.067700
     45 H31          3.4160     7.7480    22.4470 hc         1 WN5       0.055200
     46 H32          2.4130     6.4990    21.7860 hc         1 WN5       0.055200
     47 H33          6.7590     5.6160    22.8650 hc         1 WN5       0.045700
     48 H34          7.1200     6.8630    24.0480 hc         1 WN5       0.045700
     49 H40          0.5210     3.0130    20.2530 ha         1 WN5       0.120000
     50 H51          3.2590     4.0100    17.5050 hn         1 WN5       0.385000
     51 H39          2.8320     3.8740    20.5590 ha         1 WN5       0.123500
@<TRIPOS>BOND
     1     1     2 ar  
     2     1    18 ar  
     3     1    23 1   
     4     2    12 1   
     5     2    17 ar  
     6     3     4 ar  
     7     3    17 ar  
     8     3    19 1   
     9     4     5 1   
    10     4    18 ar  
    11     5    20 1   
    12     5    29 1   
    13     5    30 1   
    14     6     7 1   
    15     6    19 1   
    16     6    31 1   
    17     6    32 1   
    18     7    20 1   
    19     7    33 1   
    20     7    34 1   
    21     8    21 ar  
    22     8    22 ar  
    23     8    51 1   
    24     9    10 ar  
    25     9    22 ar  
    26     9    35 1   
    27    10    11 ar  
    28    10    36 1   
    29    11    21 ar  
    30    11    37 1   
    31    12    25 1   
    32    12    28 2   
    33    13    14 1   
    34    13    16 1   
    35    13    23 1   
    36    13    38 1   
    37    14    24 1   
    38    14    39 1   
    39    14    40 1   
    40    15    16 1   
    41    15    24 1   
    42    15    41 1   
    43    15    42 1   
    44    16    43 1   
    45    16    44 1   
    46    17    21 1   
    47    19    45 1   
    48    19    46 1   
    49    20    47 1   
    50    20    48 1   
    51    22    49 1   
    52    25    26 1   
    53    25    50 1   
    54    26    27 2   
    55    27    28 1   
@<TRIPOS>SUBSTRUCTURE
     1 WN5         1 TEMP              0 ****  ****    0 ROOT
