@<TRIPOS>MOLECULE
WN6
   37    37     1     0     0
SMALL
abcg2


@<TRIPOS>ATOM
      1 N2          -3.7940     2.5130     0.5740 n8         1 WN6      -1.005200
      2 C12         -4.0740     1.0970     0.8250 c3         1 WN6      -0.197500
      3 C13         -5.5510     0.8210     0.5700 c3         1 WN6      -0.046100
      4 P1          -3.0400    -0.0630    -0.1970 p5         1 WN6       1.370000
      5 O4          -3.1420     0.4020    -1.6420 o          1 WN6      -0.811500
      6 C14         -1.3370     0.2760     0.4110 c3         1 WN6      -0.399400
      7 C15         -0.2410    -0.3780    -0.4320 c3         1 WN6      -0.153700
      8 C16          1.1320     0.1120     0.0330 c3         1 WN6      -0.037400
      9 C17          2.3030    -0.4590    -0.7710 c3         1 WN6      -0.046100
     10 C18          3.6190     0.0900    -0.2950 ca         1 WN6      -0.031300
     11 C19          4.3240    -0.5380     0.7290 ca         1 WN6      -0.114000
     12 C20          5.5160    -0.0090     1.2070 ca         1 WN6      -0.125000
     13 C21          6.0240     1.1660     0.6660 ca         1 WN6      -0.150000
     14 C22          5.3310     1.8030    -0.3550 ca         1 WN6      -0.125000
     15 C23          4.1390     1.2680    -0.8280 ca         1 WN6      -0.114000
     16 C24         -0.3050    -1.9160    -0.3650 c          1 WN6       0.727000
     17 O5          -0.4650    -2.5360    -1.4360 o          1 WN6      -0.746000
     18 O6          -0.1480    -2.4280     0.7630 o          1 WN6      -0.746000
     19 O7          -3.4380    -1.4870     0.1440 o          1 WN6      -0.811500
     20 H13         -2.8520     2.7330     0.8740 hn         1 WN6       0.377000
     21 H14         -3.8630     0.9020     1.8820 h1         1 WN6       0.038700
     22 H15         -5.8010     0.9920    -0.4800 hc         1 WN6       0.015367
     23 H16         -5.8070    -0.2110     0.8060 hc         1 WN6       0.015367
     24 H17         -6.1800     1.4770     1.1740 hc         1 WN6       0.015367
     25 H19         -1.1830     1.3610     0.4150 hc         1 WN6       0.017200
     26 H20         -1.2480    -0.0540     1.4500 hc         1 WN6       0.017200
     27 H21         -0.3810    -0.0660    -1.4720 hc         1 WN6       0.043700
     28 H22          1.1630     1.2050    -0.0280 hc         1 WN6       0.012700
     29 H23          1.2650    -0.1410     1.0890 hc         1 WN6       0.012700
     30 H24          2.3120    -1.5480    -0.6850 hc         1 WN6       0.061700
     31 H25          2.1630    -0.2260    -1.8300 hc         1 WN6       0.061700
     32 H26          3.9380    -1.4570     1.1570 ha         1 WN6       0.119500
     33 H27          6.0510    -0.5160     2.0000 ha         1 WN6       0.088500
     34 H28          6.9540     1.5790     1.0350 ha         1 WN6       0.083000
     35 H29          5.7180     2.7180    -0.7860 ha         1 WN6       0.088500
     36 H30          3.6040     1.7730    -1.6250 ha         1 WN6       0.119500
     37 H2          -3.7960     2.6620    -0.4300 hn         1 WN6       0.377000
@<TRIPOS>BOND
     1     1     2 1   
     2     1    20 1   
     3     1    37 1   
     4     2     3 1   
     5     2     4 1   
     6     2    21 1   
     7     3    22 1   
     8     3    23 1   
     9     3    24 1   
    10     4     5 1   
    11     4     6 1   
    12     4    19 1   
    13     6     7 1   
    14     6    25 1   
    15     6    26 1   
    16     7     8 1   
    17     7    16 1   
    18     7    27 1   
    19     8     9 1   
    20     8    28 1   
    21     8    29 1   
    22     9    10 1   
    23     9    30 1   
    24     9    31 1   
    25    10    11 ar  
    26    10    15 ar  
    27    11    12 ar  
    28    11    32 1   
    29    12    13 ar  
    30    12    33 1   
    31    13    14 ar  
    32    13    34 1   
    33    14    15 ar  
    34    14    35 1   
    35    15    36 1   
    36    16    17 1   
    37    16    18 1   
@<TRIPOS>SUBSTRUCTURE
     1 WN6         1 TEMP              0 ****  ****    0 ROOT
