@<TRIPOS>MOLECULE
WN6
   37    37     1     0     0
SMALL
No Charge or Current Charge


@<TRIPOS>ATOM
      1 N2          -3.9870     2.6650     0.6420 n8         1 WN6      -1.005200
      2 C12         -4.1660     1.1570     0.7720 c3         1 WN6      -0.197500
      3 C13         -5.6690     0.8190     0.6180 c3         1 WN6      -0.046100
      4 P1          -3.1000    -0.1130    -0.2120 p5         1 WN6       1.370000
      5 O4          -3.2170     0.1520    -1.6820 o          1 WN6      -0.811500
      6 C14         -1.3750     0.2750     0.3600 c3         1 WN6      -0.399400
      7 C15         -0.2100    -0.4110    -0.4340 c3         1 WN6      -0.153700
      8 C16          1.1770     0.0740     0.0730 c3         1 WN6      -0.037400
      9 C17          2.3750    -0.4570    -0.7490 c3         1 WN6      -0.046100
     10 C18          3.7020     0.1070    -0.2580 ca         1 WN6      -0.031300
     11 C19          4.3970    -0.5240     0.7920 ca         1 WN6      -0.114000
     12 C20          5.6210    -0.0040     1.2480 ca         1 WN6      -0.125000
     13 C21          6.1570     1.1520     0.6560 ca         1 WN6      -0.150000
     14 C22          5.4680     1.7870    -0.3910 ca         1 WN6      -0.125000
     15 C23          4.2440     1.2670    -0.8460 ca         1 WN6      -0.114000
     16 C24         -0.3100    -1.9680    -0.4510 c          1 WN6       0.727000
     17 O5          -0.4490    -2.5230    -1.5320 o          1 WN6      -0.746000
     18 O6          -0.1940    -2.5780     0.6030 o          1 WN6      -0.746000
     19 O7          -3.4720    -1.5140     0.1620 o          1 WN6      -0.811500
     20 H13         -3.0070     2.9200     0.8270 hn         1 WN6       0.377000
     21 H14         -3.8930     0.9110     1.8070 h1         1 WN6       0.038700
     22 H15         -5.9980     0.9600    -0.4190 hc         1 WN6       0.015367
     23 H16         -5.8640    -0.2230     0.8980 hc         1 WN6       0.015367
     24 H17         -6.2850     1.4550     1.2650 hc         1 WN6       0.015367
     25 H19         -1.2620     1.3640     0.3030 hc         1 WN6       0.017200
     26 H20         -1.3170     0.0010     1.4190 hc         1 WN6       0.017200
     27 H21         -0.3030    -0.0740    -1.4740 hc         1 WN6       0.043700
     28 H22          1.2000     1.1710     0.0480 hc         1 WN6       0.012700
     29 H23          1.3060    -0.2180     1.1220 hc         1 WN6       0.012700
     30 H24          2.3980    -1.5520    -0.6990 hc         1 WN6       0.061700
     31 H25          2.2260    -0.2030    -1.8060 hc         1 WN6       0.061700
     32 H26          3.9860    -1.4180     1.2570 ha         1 WN6       0.119500
     33 H27          6.1520    -0.4960     2.0590 ha         1 WN6       0.088500
     34 H28          7.1030     1.5550     1.0080 ha         1 WN6       0.083000
     35 H29          5.8820     2.6830    -0.8490 ha         1 WN6       0.088500
     36 H30          3.7160     1.7660    -1.6550 ha         1 WN6       0.119500
     37 H2          -4.1250     2.9500    -0.3380 hn         1 WN6       0.377000
@<TRIPOS>BOND
     1     1     2 1   
     2     1    20 1   
     3     1    37 1   
     4     2     3 1   
     5     2     4 1   
     6     2    21 1   
     7     3    22 1   
     8     3    23 1   
     9     3    24 1   
    10     4     5 1   
    11     4     6 1   
    12     4    19 1   
    13     6     7 1   
    14     6    25 1   
    15     6    26 1   
    16     7     8 1   
    17     7    16 1   
    18     7    27 1   
    19     8     9 1   
    20     8    28 1   
    21     8    29 1   
    22     9    10 1   
    23     9    30 1   
    24     9    31 1   
    25    10    11 ar  
    26    10    15 ar  
    27    11    12 ar  
    28    11    32 1   
    29    12    13 ar  
    30    12    33 1   
    31    13    14 ar  
    32    13    34 1   
    33    14    15 ar  
    34    14    35 1   
    35    15    36 1   
    36    16    17 1   
    37    16    18 1   
@<TRIPOS>SUBSTRUCTURE
     1 WN6         1 TEMP              0 ****  ****    0 ROOT
