@<TRIPOS>MOLECULE
WN7
   28    29     1     0     0
SMALL
bcc


@<TRIPOS>ATOM
      1 C10        -33.4190    -7.1830   -22.7710 ca         1 WN7      -0.241800
      2 N12        -33.3130    -4.8020   -22.5610 nb         1 WN7      -0.662000
      3 C13        -32.8490    -4.9730   -21.3290 ca         1 WN7       0.403200
      4 C15        -29.8770    -8.4800   -21.1950 ca         1 WN7      -0.174000
      5 C02        -28.5010    -8.2900   -21.2570 ca         1 WN7      -0.144600
      6 C03        -27.7940    -8.2630   -20.0620 ca         1 WN7       0.346200
      7 C05        -29.6790    -8.5900   -18.8200 ca         1 WN7       0.326200
      8 C06        -30.5030    -8.6410   -19.9590 ca         1 WN7       0.072300
      9 C09        -32.9360    -7.3580   -21.4790 ca         1 WN7      -0.080300
     10 C11        -33.5910    -5.8980   -23.2600 ca         1 WN7       0.403200
     11 C14        -32.6440    -6.2150   -20.7470 ca         1 WN7      -0.241800
     12 N04        -28.3760    -8.4080   -18.8740 nb         1 WN7      -0.631000
     13 N07        -31.8450    -8.8630   -19.8210 nu         1 WN7      -0.775600
     14 H1         -33.6560    -8.0340   -23.3970 ha         1 WN7       0.141000
     15 H2         -32.6240    -4.0720   -20.7680 h4         1 WN7       0.020600
     16 H3         -30.4520    -8.4980   -22.1140 ha         1 WN7       0.137000
     17 H4         -28.2030    -7.2550   -23.1160 hc         1 WN7       0.045033
     18 H5         -26.7360    -7.9630   -22.4400 hc         1 WN7       0.045033
     19 H6         -27.9420    -8.9880   -23.2120 hc         1 WN7       0.045033
     20 H7         -26.7180    -8.1160   -20.0650 h4         1 WN7       0.018100
     21 H8         -30.1220    -8.7040   -17.8340 h4         1 WN7       0.012100
     22 H9         -33.7430    -9.0890   -20.5450 h1         1 WN7       0.061700
     23 H10        -32.5020    -9.4370   -21.7150 h1         1 WN7       0.061700
     24 H11        -33.9660    -5.7480   -24.2670 h4         1 WN7       0.020600
     25 H12        -32.2610    -6.2760   -19.7370 ha         1 WN7       0.141000
     26 H13        -32.2220    -8.8100   -18.8900 hn         1 WN7       0.430800
     27 C08        -32.7720    -8.7480   -20.9070 c3         1 WN7       0.267100
     28 C01        -27.8060    -8.1150   -22.5730 c3         1 WN7      -0.045800
@<TRIPOS>BOND
     1     1     9 ar  
     2     1    10 ar  
     3     1    14 1   
     4     2     3 ar  
     5     2    10 ar  
     6     3    11 ar  
     7     3    15 1   
     8     4     5 ar  
     9     4     8 ar  
    10     4    16 1   
    11     5     6 ar  
    12     5    28 1   
    13     6    12 ar  
    14     6    20 1   
    15     7     8 ar  
    16     7    12 ar  
    17     7    21 1   
    18     8    13 1   
    19     9    11 ar  
    20     9    27 1   
    21    10    24 1   
    22    11    25 1   
    23    13    26 1   
    24    13    27 1   
    25    17    28 1   
    26    18    28 1   
    27    19    28 1   
    28    22    27 1   
    29    23    27 1   
@<TRIPOS>SUBSTRUCTURE
     1 WN7         1 TEMP              0 ****  ****    0 ROOT
