@<TRIPOS>MOLECULE
WN7
   28    29     1     0     0
SMALL
No Charge or Current Charge


@<TRIPOS>ATOM
      1 C10        -32.5690    -6.9180   -22.5770 ca         1 WN7      -0.158500
      2 N12        -33.1920    -4.6100   -22.1650 nb         1 WN7      -0.662000
      3 C13        -33.6140    -4.9800   -20.9330 ca         1 WN7       0.337900
      4 C15        -29.8700    -8.8080   -21.3210 ca         1 WN7      -0.156000
      5 C02        -28.5090    -8.4930   -21.5080 ca         1 WN7      -0.079300
      6 C03        -27.7710    -7.9790   -20.4190 ca         1 WN7       0.280900
      7 C05        -29.6190    -8.0810   -19.0260 ca         1 WN7       0.260900
      8 C06        -30.4530    -8.5970   -20.0580 ca         1 WN7       0.276000
      9 C09        -33.0070    -7.3060   -21.2960 ca         1 WN7      -0.080300
     10 C11        -32.6780    -5.5720   -22.9670 ca         1 WN7       0.337900
     11 C14        -33.5410    -6.3040   -20.4640 ca         1 WN7      -0.158500
     12 N04        -28.3060    -7.7740   -19.1930 nb         1 WN7      -0.631000
     13 N07        -31.8140    -8.8950   -19.8350 nu         1 WN7      -0.969200
     14 H1         -32.1470    -7.6430   -23.2670 ha         1 WN7       0.123000
     15 H2         -34.0230    -4.1910   -20.3030 h4         1 WN7       0.020600
     16 H3         -30.4540    -9.2120   -22.1420 ha         1 WN7       0.119000
     17 H4         -28.2220    -7.9740   -23.5940 hc         1 WN7       0.045033
     18 H5         -26.7640    -8.6000   -22.8090 hc         1 WN7       0.045033
     19 H6         -28.0710    -9.7060   -23.2550 hc         1 WN7       0.045033
     20 H7         -26.7180    -7.7250   -20.5310 h4         1 WN7       0.018100
     21 H8         -30.0230    -7.9030   -18.0300 h4         1 WN7       0.012100
     22 H9         -33.8600    -9.0510   -20.3750 h1         1 WN7       0.061700
     23 H10        -32.7290    -9.4130   -21.6840 h1         1 WN7       0.061700
     24 H11        -32.3440    -5.2530   -23.9540 h4         1 WN7       0.020600
     25 H12        -33.8930    -6.5400   -19.4640 ha         1 WN7       0.123000
     26 H13        -32.1090    -8.8310   -18.8570 hn         1 WN7       0.486000
     27 C08        -32.9010    -8.7520   -20.8230 c3         1 WN7       0.267100
     28 C01        -27.8540    -8.7050   -22.8650 c3         1 WN7      -0.045800
@<TRIPOS>BOND
     1     1     9 ar  
     2     1    10 ar  
     3     1    14 1   
     4     2     3 ar  
     5     2    10 ar  
     6     3    11 ar  
     7     3    15 1   
     8     4     5 ar  
     9     4     8 ar  
    10     4    16 1   
    11     5     6 ar  
    12     5    28 1   
    13     6    12 ar  
    14     6    20 1   
    15     7     8 ar  
    16     7    12 ar  
    17     7    21 1   
    18     8    13 1   
    19     9    11 ar  
    20     9    27 1   
    21    10    24 1   
    22    11    25 1   
    23    13    26 1   
    24    13    27 1   
    25    17    28 1   
    26    18    28 1   
    27    19    28 1   
    28    22    27 1   
    29    23    27 1   
@<TRIPOS>SUBSTRUCTURE
     1 WN7         1 TEMP              0 ****  ****    0 ROOT
