@<TRIPOS>MOLECULE
WNA
   28    29     1     0     0
SMALL
abcg2


@<TRIPOS>ATOM
      1 C10        -27.9620    26.3340   -30.5020 cc         1 WNA       0.651400
      2 N12        -28.2210    28.1690   -31.5720 nd         1 WNA      -0.024000
      3 C15        -30.2880    25.4220   -30.8930 c3         1 WNA       0.072900
      4 C02        -24.9240    26.3960   -27.2070 ca         1 WNA      -0.066300
      5 C03        -24.9170    27.0950   -26.0010 ca         1 WNA      -0.104000
      6 C04        -26.0940    27.5630   -25.4260 ca         1 WNA      -0.103000
      7 C05        -27.3060    27.3300   -26.0630 ca         1 WNA      -0.106000
      8 C06        -27.3280    26.6320   -27.2670 ca         1 WNA      -0.101000
      9 C07        -26.1540    26.1640   -27.8480 ca         1 WNA      -0.110300
     10 C08        -26.1650    25.3910   -29.1520 c3         1 WNA       0.278100
     11 N09        -27.4550    25.2910   -29.8140 nu         1 WNA      -0.921100
     12 N11        -27.3260    27.4510   -30.8490 nd         1 WNA      -0.445000
     13 N13        -29.3450    27.5610   -31.6720 nc         1 WNA      -0.210800
     14 N14        -29.2140    26.3880   -31.0000 na         1 WNA      -0.147700
     15 H1         -31.1480    25.8200   -31.4240 h1         1 WNA       0.060033
     16 H2         -29.9840    24.4760   -31.3410 h1         1 WNA       0.060033
     17 H3         -30.5460    25.2650   -29.8450 h1         1 WNA       0.060033
     18 H4         -23.4530    26.3460   -28.7880 hc         1 WNA       0.044367
     19 H5         -22.7910    26.1510   -27.1610 hc         1 WNA       0.044367
     20 H6         -23.6470    24.8180   -27.9450 hc         1 WNA       0.044367
     21 H7         -23.9690    27.2740   -25.5060 ha         1 WNA       0.113000
     22 H8         -26.0620    28.1050   -24.4890 ha         1 WNA       0.115000
     23 H9         -28.2320    27.6870   -25.6290 ha         1 WNA       0.114000
     24 H10        -28.2760    26.4530   -27.7570 ha         1 WNA       0.101000
     25 H11        -25.8160    24.3710   -28.9790 h1         1 WNA       0.073200
     26 H12        -25.4630    25.8410   -29.8540 h1         1 WNA       0.073200
     27 H13        -28.1090    24.6140   -29.4540 hn         1 WNA       0.486000
     28 C01        -23.6340    25.9020   -27.8040 c3         1 WNA      -0.051800
@<TRIPOS>BOND
     1     1    11 1   
     2     1    12 2   
     3     1    14 1   
     4     2    12 1   
     5     2    13 2   
     6     3    14 1   
     7     3    15 1   
     8     3    16 1   
     9     3    17 1   
    10     4     5 ar  
    11     4     9 ar  
    12     4    28 1   
    13     5     6 ar  
    14     5    21 1   
    15     6     7 ar  
    16     6    22 1   
    17     7     8 ar  
    18     7    23 1   
    19     8     9 ar  
    20     8    24 1   
    21     9    10 1   
    22    10    11 1   
    23    10    25 1   
    24    10    26 1   
    25    11    27 1   
    26    13    14 1   
    27    18    28 1   
    28    19    28 1   
    29    20    28 1   
@<TRIPOS>SUBSTRUCTURE
     1 WNA         1 TEMP              0 ****  ****    0 ROOT
