@<TRIPOS>MOLECULE
WNA
   28    29     1     0     0
SMALL
No Charge or Current Charge


@<TRIPOS>ATOM
      1 C10        -27.6260    25.4830   -30.8710 cc         1 WNA       0.651400
      2 N12        -27.3880    24.9770   -32.9390 nd         1 WNA      -0.024000
      3 C15        -29.6160    27.0610   -31.1770 c3         1 WNA       0.072900
      4 C02        -25.5350    26.9160   -27.2450 ca         1 WNA      -0.066300
      5 C03        -25.4700    27.5420   -25.9840 ca         1 WNA      -0.104000
      6 C04        -26.1330    26.9910   -24.8760 ca         1 WNA      -0.103000
      7 C05        -26.8700    25.8070   -25.0190 ca         1 WNA      -0.106000
      8 C06        -26.9410    25.1730   -26.2700 ca         1 WNA      -0.101000
      9 C07        -26.2770    25.7150   -27.3890 ca         1 WNA      -0.110300
     10 C08        -26.3840    24.9910   -28.7300 c3         1 WNA       0.278100
     11 N09        -27.4790    25.5690   -29.5150 nu         1 WNA      -0.921100
     12 N11        -26.8880    24.7590   -31.6740 nd         1 WNA      -0.445000
     13 N13        -28.4020    25.8070   -32.9280 nc         1 WNA      -0.210800
     14 N14        -28.5630    26.1340   -31.6210 na         1 WNA      -0.147700
     15 H1         -30.2210    27.3840   -32.0330 h1         1 WNA       0.060033
     16 H2         -30.2650    26.5590   -30.4490 h1         1 WNA       0.060033
     17 H3         -29.1590    27.9420   -30.7100 h1         1 WNA       0.060033
     18 H4         -25.4810    27.7170   -29.2710 hc         1 WNA       0.044367
     19 H5         -24.3680    28.5200   -28.1630 hc         1 WNA       0.044367
     20 H6         -23.9840    26.9070   -28.7710 hc         1 WNA       0.044367
     21 H7         -24.9030    28.4620   -25.8590 ha         1 WNA       0.113000
     22 H8         -26.0770    27.4840   -23.9070 ha         1 WNA       0.115000
     23 H9         -27.3860    25.3790   -24.1620 ha         1 WNA       0.114000
     24 H10        -27.5180    24.2560   -26.3700 ha         1 WNA       0.101000
     25 H11        -26.5700    23.9220   -28.5550 h1         1 WNA       0.073200
     26 H12        -25.4320    25.0640   -29.2730 h1         1 WNA       0.073200
     27 H13        -28.0890    26.2410   -29.0570 hn         1 WNA       0.486000
     28 C01        -24.8030    27.5480   -28.4260 c3         1 WNA      -0.051800
@<TRIPOS>BOND
     1     1    11 1   
     2     1    12 2   
     3     1    14 1   
     4     2    12 1   
     5     2    13 2   
     6     3    14 1   
     7     3    15 1   
     8     3    16 1   
     9     3    17 1   
    10     4     5 ar  
    11     4     9 ar  
    12     4    28 1   
    13     5     6 ar  
    14     5    21 1   
    15     6     7 ar  
    16     6    22 1   
    17     7     8 ar  
    18     7    23 1   
    19     8     9 ar  
    20     8    24 1   
    21     9    10 1   
    22    10    11 1   
    23    10    25 1   
    24    10    26 1   
    25    11    27 1   
    26    13    14 1   
    27    18    28 1   
    28    19    28 1   
    29    20    28 1   
@<TRIPOS>SUBSTRUCTURE
     1 WNA         1 TEMP              0 ****  ****    0 ROOT
