@<TRIPOS>MOLECULE
WNB
   38    41     1     0     0
SMALL
abcg2


@<TRIPOS>ATOM
      1 N3           5.2890     6.4610    19.7170 na         1 WNB      -0.098700
      2 C4           6.4380     8.3810    19.9510 cc         1 WNB      -0.274200
      3 C5           7.0700     6.7880    16.8210 cx         1 WNB      -0.198700
      4 C6           6.9880     8.2950    16.8300 cx         1 WNB      -0.102400
      5 C7           5.3740     6.6940    21.0730 ca         1 WNB      -0.051200
      6 C8           4.5820     5.3570    19.1100 c3         1 WNB       0.113900
      7 C10          6.7280     6.0110    15.5680 c          1 WNB       0.721000
      8 C13          6.3430     8.3520    22.5620 ca         1 WNB      -0.076000
      9 C17          2.5190     6.8280    19.1420 ca         1 WNB      -0.081000
     10 C20          1.1460     6.9790    18.9970 ca         1 WNB       0.128000
     11 C21          0.8950     4.6500    18.5470 ca         1 WNB      -0.106000
     12 C22          0.3180     5.9070    18.7000 ca         1 WNB      -0.113000
     13 C1           5.9220     7.4960    19.0360 cd         1 WNB       0.035700
     14 C2           5.9540     7.5130    17.5670 cx         1 WNB      -0.129500
     15 C9           6.1080     7.8970    21.2580 ca         1 WNB      -0.081800
     16 C11          4.8690     5.9600    22.1440 ca         1 WNB      -0.120000
     17 C12          3.0860     5.5680    18.9870 ca         1 WNB      -0.080300
     18 O14          5.8170     6.4680    14.8290 o          1 WNB      -0.730000
     19 O15          7.3870     4.9560    15.3660 o          1 WNB      -0.730000
     20 C16          5.1170     6.4370    23.4240 ca         1 WNB      -0.117000
     21 C18          2.2650     4.4790    18.6900 ca         1 WNB      -0.103000
     22 C19          5.8480     7.6200    23.6310 ca         1 WNB      -0.150000
     23 H1           6.9820     9.2800    19.7110 ha         1 WNB       0.201000
     24 H2           7.8370     6.3480    17.4440 hc         1 WNB       0.065700
     25 H3           6.6790     8.7700    15.9090 hc         1 WNB       0.063200
     26 H4           7.7310     8.8300    17.4070 hc         1 WNB       0.063200
     27 H5           5.0090     5.1830    18.1220 h1         1 WNB       0.086700
     28 H6           4.7720     4.4550    19.6960 h1         1 WNB       0.086700
     29 H7           6.9020     9.2650    22.7320 ha         1 WNB       0.104000
     30 H8           3.1340     7.6850    19.3780 ha         1 WNB       0.147000
     31 H9           0.2640     3.8000    18.3190 ha         1 WNB       0.109000
     32 H10         -0.7480     6.0490    18.5950 ha         1 WNB       0.119000
     33 H11          4.9910     7.4340    17.0750 hc         1 WNB       0.110700
     34 H12          4.2990     5.0530    21.9890 ha         1 WNB       0.108000
     35 H14          4.7380     5.8890    24.2780 ha         1 WNB       0.096000
     36 H15          2.7030     3.4950    18.5750 ha         1 WNB       0.117000
     37 H16          6.0220     7.9640    24.6430 ha         1 WNB       0.095000
     38 CL23         0.4450     8.5740    19.1980 cl         1 WNB      -0.231000
@<TRIPOS>BOND
     1     1     5 1   
     2     1     6 1   
     3     1    13 1   
     4     2    13 2   
     5     2    15 1   
     6     2    23 1   
     7     3     4 1   
     8     3     7 1   
     9     3    14 1   
    10     3    24 1   
    11     4    14 1   
    12     4    25 1   
    13     4    26 1   
    14     5    15 ar  
    15     5    16 ar  
    16     6    17 1   
    17     6    27 1   
    18     6    28 1   
    19     7    18 1   
    20     7    19 1   
    21     8    15 ar  
    22     8    22 ar  
    23     8    29 1   
    24     9    10 ar  
    25     9    17 ar  
    26     9    30 1   
    27    10    12 ar  
    28    10    38 1   
    29    11    12 ar  
    30    11    21 ar  
    31    11    31 1   
    32    12    32 1   
    33    13    14 1   
    34    14    33 1   
    35    16    20 ar  
    36    16    34 1   
    37    17    21 ar  
    38    20    22 ar  
    39    20    35 1   
    40    21    36 1   
    41    22    37 1   
@<TRIPOS>SUBSTRUCTURE
     1 WNB         1 TEMP              0 ****  ****    0 ROOT
