@<TRIPOS>MOLECULE
WNB
   38    41     1     0     0
SMALL
No Charge or Current Charge


@<TRIPOS>ATOM
      1 N3           5.2630     6.4860    19.5590 na         1 WNB      -0.098700
      2 C4           6.5090     8.3420    19.9510 cc         1 WNB      -0.274200
      3 C5           7.1670     6.7350    16.7450 cx         1 WNB      -0.198700
      4 C6           7.6230     8.1590    16.9860 cx         1 WNB      -0.102400
      5 C7           5.2950     6.7140    20.9290 ca         1 WNB      -0.051200
      6 C8           4.5130     5.3920    18.9170 c3         1 WNB       0.113900
      7 C10          6.7820     6.3130    15.3410 c          1 WNB       0.721000
      8 C13          6.2400     8.2940    22.5070 ca         1 WNB      -0.076000
      9 C17          2.3840     6.8140    18.8830 ca         1 WNB      -0.081000
     10 C20          0.9870     6.9360    18.9530 ca         1 WNB       0.128000
     11 C21          0.7840     4.5290    19.2240 ca         1 WNB      -0.106000
     12 C22          0.1850     5.7960    19.1240 ca         1 WNB      -0.113000
     13 C1           6.0230     7.5110    18.9480 cd         1 WNB       0.035700
     14 C2           6.2740     7.7060    17.4970 cx         1 WNB      -0.129500
     15 C9           6.0400     7.8270    21.2020 ca         1 WNB      -0.081800
     16 C11          4.6850     5.9800    21.9600 ca         1 WNB      -0.120000
     17 C12          2.9940     5.5450    18.9880 ca         1 WNB      -0.080300
     18 O14          5.6810     5.8130    15.1720 o          1 WNB      -0.730000
     19 O15          7.6150     6.4390    14.4550 o          1 WNB      -0.730000
     20 C16          4.8650     6.4210    23.2890 ca         1 WNB      -0.117000
     21 C18          2.1830     4.4040    19.1550 ca         1 WNB      -0.103000
     22 C19          5.6400     7.5740    23.5610 ca         1 WNB      -0.150000
     23 H1           7.1240     9.2230    19.7940 ha         1 WNB       0.201000
     24 H2           7.6550     5.9620    17.3320 hc         1 WNB       0.065700
     25 H3           7.6360     8.8430    16.1410 hc         1 WNB       0.063200
     26 H4           8.4220     8.3140    17.7070 hc         1 WNB       0.063200
     27 H5           4.8120     5.3310    17.8630 h1         1 WNB       0.086700
     28 H6           4.8130     4.4490    19.3920 h1         1 WNB       0.086700
     29 H7           6.8360     9.1830    22.7000 ha         1 WNB       0.104000
     30 H8           2.9870     7.7080    18.7470 ha         1 WNB       0.147000
     31 H9           0.1650     3.6430    19.3540 ha         1 WNB       0.109000
     32 H10         -0.8960     5.8950    19.1770 ha         1 WNB       0.119000
     33 H11          5.3980     8.0740    16.9670 hc         1 WNB       0.110700
     34 H12          4.0890     5.0960    21.7480 ha         1 WNB       0.108000
     35 H14          4.4050     5.8730    24.1070 ha         1 WNB       0.096000
     36 H15          2.6360     3.4180    19.2330 ha         1 WNB       0.117000
     37 H16          5.7730     7.9070    24.5880 ha         1 WNB       0.095000
     38 Cl23         0.2380     8.5220    18.8250 cl         1 WNB      -0.231000
@<TRIPOS>BOND
     1     1     5 1   
     2     1     6 1   
     3     1    13 1   
     4     2    13 2   
     5     2    15 1   
     6     2    23 1   
     7     3     4 1   
     8     3     7 1   
     9     3    14 1   
    10     3    24 1   
    11     4    14 1   
    12     4    25 1   
    13     4    26 1   
    14     5    15 ar  
    15     5    16 ar  
    16     6    17 1   
    17     6    27 1   
    18     6    28 1   
    19     7    18 1   
    20     7    19 1   
    21     8    15 ar  
    22     8    22 ar  
    23     8    29 1   
    24     9    10 ar  
    25     9    17 ar  
    26     9    30 1   
    27    10    12 ar  
    28    10    38 1   
    29    11    12 ar  
    30    11    21 ar  
    31    11    31 1   
    32    12    32 1   
    33    13    14 1   
    34    14    33 1   
    35    16    20 ar  
    36    16    34 1   
    37    17    21 ar  
    38    20    22 ar  
    39    20    35 1   
    40    21    36 1   
    41    22    37 1   
@<TRIPOS>SUBSTRUCTURE
     1 WNB         1 TEMP              0 ****  ****    0 ROOT
