@<TRIPOS>MOLECULE
WND
   31    31     1     0     0
SMALL
No Charge or Current Charge


@<TRIPOS>ATOM
      1 C01        -41.3680    -1.5490   -18.4530 c3         1 WND      -0.097100
      2 C02        -41.0520    -2.7180   -17.4880 c3         1 WND       0.184000
      3 C03        -41.8850    -2.5960   -16.1890 c3         1 WND      -0.097100
      4 C05        -39.5160    -2.8150   -17.1840 c3         1 WND       0.134800
      5 C07        -37.5320    -1.5880   -16.1990 c6         1 WND       0.181500
      6 C08        -37.1100    -0.1670   -15.7540 c6         1 WND      -0.115400
      7 C09        -35.6200    -0.1470   -15.3440 c6         1 WND       0.155600
      8 C11        -35.6630    -2.4840   -14.7220 c6         1 WND       0.155600
      9 C12        -37.1540    -2.6220   -15.1060 c6         1 WND      -0.115400
     10 N06        -38.9740    -1.6080   -16.5060 n7         1 WND      -0.867400
     11 O04        -41.4600    -3.9260   -18.1440 oh         1 WND      -0.662000
     12 O10        -35.3820    -1.1280   -14.3130 os         1 WND      -0.448000
     13 H1         -41.1410    -0.5820   -17.9910 hc         1 WND       0.043033
     14 H2         -40.7790    -1.6340   -19.3750 hc         1 WND       0.043033
     15 H3         -42.4300    -1.5470   -18.7280 hc         1 WND       0.043033
     16 H4         -41.6610    -1.6580   -15.6670 hc         1 WND       0.043033
     17 H5         -42.9590    -2.6090   -16.4090 hc         1 WND       0.043033
     18 H6         -41.6660    -3.4230   -15.5030 hc         1 WND       0.043033
     19 H7         -39.3450    -3.7030   -16.5610 h1         1 WND       0.033200
     20 H8         -38.9830    -2.9760   -18.1310 h1         1 WND       0.033200
     21 H9         -36.9770    -1.8320   -17.1180 h1         1 WND       0.017700
     22 H10        -37.2780     0.5520   -16.5670 hc         1 WND       0.055700
     23 H11        -37.7250     0.1620   -14.9050 hc         1 WND       0.055700
     24 H12        -34.9800    -0.3680   -16.2120 h1         1 WND       0.043450
     25 H13        -35.3480     0.8470   -14.9620 h1         1 WND       0.043450
     26 H14        -35.4230    -3.1650   -13.8930 h1         1 WND       0.043450
     27 H15        -35.0220    -2.7460   -15.5760 h1         1 WND       0.043450
     28 H16        -37.7780    -2.4750   -14.2140 hc         1 WND       0.055700
     29 H17        -37.3400    -3.6440   -15.4600 hc         1 WND       0.055700
     30 H18        -39.1760    -0.8030   -17.1080 hn         1 WND       0.413000
     31 H20        -41.3660    -4.6530   -17.4910 ho         1 WND       0.438000
@<TRIPOS>BOND
     1     1     2 1   
     2     1    13 1   
     3     1    14 1   
     4     1    15 1   
     5     2     3 1   
     6     2     4 1   
     7     2    11 1   
     8     3    16 1   
     9     3    17 1   
    10     3    18 1   
    11     4    10 1   
    12     4    19 1   
    13     4    20 1   
    14     5     6 1   
    15     5     9 1   
    16     5    10 1   
    17     5    21 1   
    18     6     7 1   
    19     6    22 1   
    20     6    23 1   
    21     7    12 1   
    22     7    24 1   
    23     7    25 1   
    24     8     9 1   
    25     8    12 1   
    26     8    26 1   
    27     8    27 1   
    28     9    28 1   
    29     9    29 1   
    30    10    30 1   
    31    11    31 1   
@<TRIPOS>SUBSTRUCTURE
     1 WND         1 TEMP              0 ****  ****    0 ROOT
