@<TRIPOS>MOLECULE
WND
   31    31     1     0     0
SMALL
bcc


@<TRIPOS>ATOM
      1 C01        -41.5140    -1.5080   -18.2400 c3         1 WND      -0.097100
      2 C02        -40.9760    -2.7110   -17.4770 c3         1 WND       0.160800
      3 C03        -41.5740    -2.7650   -16.0750 c3         1 WND      -0.097100
      4 C05        -39.4420    -2.6750   -17.4080 c3         1 WND       0.134800
      5 C07        -37.5560    -1.5910   -16.2880 c6         1 WND       0.181500
      6 C08        -37.0410    -0.2020   -15.9250 c6         1 WND      -0.115400
      7 C09        -35.6270    -0.2780   -15.3700 c6         1 WND       0.132400
      8 C11        -35.9590    -2.4480   -14.5630 c6         1 WND       0.132400
      9 C12        -37.3920    -2.4940   -15.0680 c6         1 WND      -0.115400
     10 N06        -38.9410    -1.5030   -16.7180 n7         1 WND      -0.812200
     11 O04        -41.3640    -3.8550   -18.2280 oh         1 WND      -0.599800
     12 O10        -35.5440    -1.1350   -14.2530 os         1 WND      -0.401600
     13 H1         -41.2660    -0.5800   -17.7260 hc         1 WND       0.043033
     14 H2         -41.0980    -1.4590   -19.2490 hc         1 WND       0.043033
     15 H3         -42.6010    -1.5550   -18.3240 hc         1 WND       0.043033
     16 H4         -41.2670    -1.9010   -15.4890 hc         1 WND       0.043033
     17 H5         -42.6650    -2.7860   -16.1150 hc         1 WND       0.043033
     18 H6         -41.2380    -3.6590   -15.5410 hc         1 WND       0.043033
     19 H7         -39.1100    -3.5680   -16.8700 h1         1 WND       0.033200
     20 H8         -39.0450    -2.7670   -18.4310 h1         1 WND       0.033200
     21 H9         -36.9060    -1.9870   -17.0900 h1         1 WND       0.017700
     22 H10        -37.0450     0.4510   -16.8030 hc         1 WND       0.055700
     23 H11        -37.7090     0.2470   -15.1840 hc         1 WND       0.055700
     24 H12        -34.9410    -0.6150   -16.1620 h1         1 WND       0.043450
     25 H13        -35.2890     0.7060   -15.0440 h1         1 WND       0.043450
     26 H14        -35.8530    -3.0390   -13.6520 h1         1 WND       0.043450
     27 H15        -35.2910    -2.8900   -15.3180 h1         1 WND       0.043450
     28 H16        -38.0810    -2.1640   -14.2840 hc         1 WND       0.055700
     29 H17        -37.6420    -3.5330   -15.2990 hc         1 WND       0.055700
     30 H18        -39.0290    -0.7030   -17.3340 hn         1 WND       0.357800
     31 H20        -41.0860    -4.6400   -17.7430 ho         1 WND       0.399000
@<TRIPOS>BOND
     1     1     2 1   
     2     1    13 1   
     3     1    14 1   
     4     1    15 1   
     5     2     3 1   
     6     2     4 1   
     7     2    11 1   
     8     3    16 1   
     9     3    17 1   
    10     3    18 1   
    11     4    10 1   
    12     4    19 1   
    13     4    20 1   
    14     5     6 1   
    15     5     9 1   
    16     5    10 1   
    17     5    21 1   
    18     6     7 1   
    19     6    22 1   
    20     6    23 1   
    21     7    12 1   
    22     7    24 1   
    23     7    25 1   
    24     8     9 1   
    25     8    12 1   
    26     8    26 1   
    27     8    27 1   
    28     9    28 1   
    29     9    29 1   
    30    10    30 1   
    31    11    31 1   
@<TRIPOS>SUBSTRUCTURE
     1 WND         1 TEMP              0 ****  ****    0 ROOT
