@<TRIPOS>MOLECULE
WNE
   66    70     1     0     0
SMALL
No Charge or Current Charge


@<TRIPOS>ATOM
      1 N1          27.9230   100.3800    17.7470 na         1 WNE       0.084800
      2 C7          26.3780   101.1240    20.3490 c3         1 WNE      -0.103400
      3 C8          25.7570   100.5840    19.0350 c3         1 WNE      -0.097400
      4 N2          29.0280   101.1740    17.8810 nc         1 WNE      -0.186800
      5 C9          26.5630   100.9440    17.7640 c3         1 WNE       0.084600
      6 C1          21.4510    99.0730    20.4270 ca         1 WNE      -0.063300
      7 C5          23.9000   102.5850    22.2200 c          1 WNE       0.681100
      8 C6          25.5750   100.7770    21.6220 c3         1 WNE       0.129000
      9 N3          30.0720   100.3780    17.8600 nd         1 WNE      -0.343000
     10 C4          22.0060   101.4630    21.7380 ca         1 WNE       0.045100
     11 C3          20.6660   101.1450    21.5040 ca         1 WNE      -0.071000
     12 C2          20.3940    99.9200    20.8550 ca         1 WNE      -0.116000
     13 N4          31.7640    95.7280    26.1240 ns         1 WNE      -0.517900
     14 N           24.2170   101.3470    21.6300 n          1 WNE      -0.321000
     15 O           22.5220   102.6220    22.2550 os         1 WNE      -0.291200
     16 C10         29.6490    99.0690    17.7160 cd         1 WNE       0.193300
     17 C11         28.2870    99.0670    17.6290 cc         1 WNE       0.055000
     18 C12         30.6000    97.9000    17.6790 c3         1 WNE      -0.086700
     19 C13         31.0920    97.4680    19.0800 c3         1 WNE      -0.075400
     20 C14         29.9580    96.9710    20.0110 c3         1 WNE      -0.077400
     21 C15         30.4260    96.5690    21.4310 c3         1 WNE      -0.075400
     22 C16         31.3790    95.3410    21.4620 c3         1 WNE      -0.051400
     23 C17         31.6820    94.6720    22.8380 c5         1 WNE       0.079300
     24 C18         31.2480    93.6060    25.1290 c5         1 WNE       0.035600
     25 C19         32.3700    94.6910    25.2850 c5         1 WNE       0.099700
     26 C20         31.4900    96.8630    25.4430 c          1 WNE       0.607000
     27 C21         32.5540    95.4420    23.8990 c5         1 WNE       0.099700
     28 C22         23.0330   100.6180    21.3860 ca         1 WNE      -0.000400
     29 C23         22.7960    99.4410    20.6650 ca         1 WNE      -0.112000
     30 F           27.4600    98.0170    17.4950 f          1 WNE      -0.136000
     31 N5          31.9290    96.7390    24.1710 ns         1 WNE      -0.514900
     32 O2          30.9520    97.8480    25.9080 o          1 WNE      -0.579000
     33 S           30.1520    94.1500    23.7370 ss         1 WNE      -0.421000
     34 H8          27.3910   100.7200    20.4670 hc         1 WNE       0.068700
     35 H7          26.4810   102.2150    20.2820 hc         1 WNE       0.068700
     36 H10         24.7430   100.9870    18.9210 hc         1 WNE       0.058700
     37 H9          25.6580    99.4930    19.1000 hc         1 WNE       0.058700
     38 H12         26.6290   102.0360    17.6710 h1         1 WNE       0.079200
     39 H11         26.0300   100.5690    16.8820 h1         1 WNE       0.079200
     40 H5          25.5040    99.6860    21.7200 h1         1 WNE       0.068200
     41 H6          26.1200   101.1460    22.5010 h1         1 WNE       0.068200
     42 H4          19.8670   101.8240    21.7940 ha         1 WNE       0.139000
     43 H3          19.3610    99.6410    20.6550 ha         1 WNE       0.121000
     44 H27         31.4990    95.6530    27.0980 hn         1 WNE       0.340500
     45 H           21.0590    97.9670    18.6040 hc         1 WNE       0.046367
     46 H1          21.9200    97.0320    19.8380 hc         1 WNE       0.046367
     47 H2          20.1910    97.3480    20.0200 hc         1 WNE       0.046367
     48 H13         30.1200    97.0450    17.1870 hc         1 WNE       0.058700
     49 H14         31.4700    98.1570    17.0630 hc         1 WNE       0.058700
     50 H16         31.8340    96.6710    18.9500 hc         1 WNE       0.046200
     51 H15         31.6110    98.3100    19.5540 hc         1 WNE       0.046200
     52 H17         29.2070    97.7640    20.1170 hc         1 WNE       0.039200
     53 H18         29.4480    96.1200    19.5430 hc         1 WNE       0.039200
     54 H20         30.9130    97.4370    21.8850 hc         1 WNE       0.055200
     55 H19         29.5350    96.3550    22.0330 hc         1 WNE       0.055200
     56 H22         30.9490    94.5720    20.8090 hc         1 WNE       0.044700
     57 H21         32.3320    95.6230    20.9990 hc         1 WNE       0.044700
     58 H23         32.2210    93.7470    22.5940 h1         1 WNE       0.066700
     59 H24         30.6690    93.4560    26.0510 h1         1 WNE       0.078200
     60 H25         31.6940    92.6390    24.8610 h1         1 WNE       0.078200
     61 H26         33.3060    94.2920    25.7000 h1         1 WNE       0.072700
     62 H29         33.6070    95.5350    23.5990 h1         1 WNE       0.062700
     63 H30         23.6190    98.8260    20.3090 ha         1 WNE       0.125000
     64 H28         31.8290    97.5170    23.5330 hn         1 WNE       0.341500
     65 C           21.1380    97.7840    19.6820 c3         1 WNE      -0.047800
     66 O1          24.6720   103.4410    22.6290 o          1 WNE      -0.506000
@<TRIPOS>BOND
     1     1     4 1   
     2     1     5 1   
     3     1    17 1   
     4     2     3 1   
     5     2     8 1   
     6     2    34 1   
     7     2    35 1   
     8     3     5 1   
     9     3    36 1   
    10     3    37 1   
    11     4     9 2   
    12     5    38 1   
    13     5    39 1   
    14     6    12 ar  
    15     6    29 ar  
    16     6    65 1   
    17     7    14 1   
    18     7    15 1   
    19     7    66 2   
    20     8    14 1   
    21     8    40 1   
    22     8    41 1   
    23     9    16 1   
    24    10    11 ar  
    25    10    15 1   
    26    10    28 ar  
    27    11    12 ar  
    28    11    42 1   
    29    12    43 1   
    30    13    25 1   
    31    13    26 1   
    32    13    44 1   
    33    14    28 1   
    34    16    17 2   
    35    16    18 1   
    36    17    30 1   
    37    18    19 1   
    38    18    48 1   
    39    18    49 1   
    40    19    20 1   
    41    19    50 1   
    42    19    51 1   
    43    20    21 1   
    44    20    52 1   
    45    20    53 1   
    46    21    22 1   
    47    21    54 1   
    48    21    55 1   
    49    22    23 1   
    50    22    56 1   
    51    22    57 1   
    52    23    27 1   
    53    23    33 1   
    54    23    58 1   
    55    24    25 1   
    56    24    33 1   
    57    24    59 1   
    58    24    60 1   
    59    25    27 1   
    60    25    61 1   
    61    26    31 1   
    62    26    32 2   
    63    27    31 1   
    64    27    62 1   
    65    28    29 ar  
    66    29    63 1   
    67    31    64 1   
    68    45    65 1   
    69    46    65 1   
    70    47    65 1   
@<TRIPOS>SUBSTRUCTURE
     1 WNE         1 TEMP              0 ****  ****    0 ROOT
