@<TRIPOS>MOLECULE
WNE
   66    70     1     0     0
SMALL
abcg2


@<TRIPOS>ATOM
      1 N1          28.0060   100.6030    17.7590 na         1 WNE       0.084800
      2 C7          26.5370   101.3390    20.3080 c3         1 WNE      -0.103400
      3 C8          25.9060   100.7250    19.0610 c3         1 WNE      -0.097400
      4 N2          29.0670   101.3940    18.0080 nc         1 WNE      -0.186800
      5 C9          26.6350   101.1020    17.7740 c3         1 WNE       0.084600
      6 C1          21.9800    98.5900    20.7800 ca         1 WNE      -0.063300
      7 C5          24.0100   102.4860    22.0550 c          1 WNE       0.681100
      8 C6          25.8720   100.9000    21.6080 c3         1 WNE       0.129000
      9 N3          30.1320   100.6330    18.0350 nd         1 WNE      -0.343000
     10 C4          22.2350   101.2070    21.6050 ca         1 WNE       0.045100
     11 C3          20.9630   100.7240    21.4250 ca         1 WNE      -0.071000
     12 C2          20.8570    99.3920    21.0060 ca         1 WNE      -0.116000
     13 N4          31.7310    96.0430    25.8420 ns         1 WNE      -0.517900
     14 N           24.4580   101.2510    21.6820 n          1 WNE      -0.321000
     15 O           22.6270   102.4690    22.0140 os         1 WNE      -0.291200
     16 C10         29.7920    99.3330    17.8110 cd         1 WNE       0.193300
     17 C11         28.4320    99.3340    17.6370 cc         1 WNE       0.055000
     18 C12         30.7570    98.1980    17.8440 c3         1 WNE      -0.086700
     19 C13         30.9650    97.6250    19.2570 c3         1 WNE      -0.075400
     20 C14         29.7000    97.0100    19.8530 c3         1 WNE      -0.077400
     21 C15         29.8700    96.4760    21.2760 c3         1 WNE      -0.075400
     22 C16         30.7880    95.2540    21.3510 c3         1 WNE      -0.051400
     23 C17         31.0030    94.6240    22.7290 c5         1 WNE       0.079300
     24 C18         30.5270    93.9540    25.1560 c5         1 WNE       0.035600
     25 C19         31.8140    94.7930    25.1070 c5         1 WNE       0.099700
     26 C20         31.7640    97.1480    25.0440 c          1 WNE       0.607000
     27 C21         32.0560    95.2800    23.6390 c5         1 WNE       0.099700
     28 C22         23.3690   100.4300    21.3910 ca         1 WNE      -0.000400
     29 C23         23.2650    99.1160    20.9770 ca         1 WNE      -0.112000
     30 F           27.5860    98.3450    17.3860 f          1 WNE      -0.136000
     31 N5          31.9400    96.7210    23.7600 ns         1 WNE      -0.514900
     32 O2          31.6630    98.3180    25.4140 o          1 WNE      -0.579000
     33 S           29.4910    94.5050    23.7640 ss         1 WNE      -0.421000
     34 H8          27.5900   101.0550    20.3760 hc         1 WNE       0.068700
     35 H7          26.5080   102.4300    20.2360 hc         1 WNE       0.068700
     36 H10         24.8720   101.0600    18.9550 hc         1 WNE       0.058700
     37 H9          25.8760    99.6360    19.1530 hc         1 WNE       0.058700
     38 H12         26.7070   102.1820    17.6580 h1         1 WNE       0.079200
     39 H11         26.1220   100.6930    16.9040 h1         1 WNE       0.079200
     40 H5          25.9400    99.8190    21.7320 h1         1 WNE       0.068200
     41 H6          26.3690   101.3640    22.4590 h1         1 WNE       0.068200
     42 H4          20.0900   101.3370    21.6000 ha         1 WNE       0.139000
     43 H3          19.8720    98.9700    20.8520 ha         1 WNE       0.121000
     44 H27         31.3810    96.0970    26.7840 hn         1 WNE       0.340500
     45 H           22.0550    97.0880    19.2380 hc         1 WNE       0.046367
     46 H1          22.4980    96.4980    20.8350 hc         1 WNE       0.046367
     47 H2          20.8000    96.8190    20.4500 hc         1 WNE       0.046367
     48 H13         30.3990    97.4060    17.1820 hc         1 WNE       0.058700
     49 H14         31.7120    98.5450    17.4460 hc         1 WNE       0.058700
     50 H16         31.7590    96.8760    19.2000 hc         1 WNE       0.046200
     51 H15         31.3290    98.4210    19.9150 hc         1 WNE       0.046200
     52 H17         28.9090    97.7660    19.8660 hc         1 WNE       0.039200
     53 H18         29.3470    96.2040    19.1990 hc         1 WNE       0.039200
     54 H20         30.2390    97.2750    21.9210 hc         1 WNE       0.055200
     55 H19         28.8850    96.2020    21.6640 hc         1 WNE       0.055200
     56 H22         30.3810    94.4850    20.6880 hc         1 WNE       0.044700
     57 H21         31.7780    95.5010    20.9560 hc         1 WNE       0.044700
     58 H23         31.3410    93.5960    22.5760 h1         1 WNE       0.066700
     59 H24         29.9900    94.0880    26.0930 h1         1 WNE       0.078200
     60 H25         30.7660    92.8970    25.0350 h1         1 WNE       0.078200
     61 H26         32.6470    94.1900    25.4720 h1         1 WNE       0.072700
     62 H29         33.0500    95.0020    23.2810 h1         1 WNE       0.062700
     63 H30         24.1430    98.5070    20.8040 ha         1 WNE       0.125000
     64 H28         32.2800    97.3550    23.0570 hn         1 WNE       0.341500
     65 C           21.8220    97.1700    20.3040 c3         1 WNE      -0.047800
     66 O1          24.6440   103.4640    22.3810 o          1 WNE      -0.506000
@<TRIPOS>BOND
     1     1     4 1   
     2     1     5 1   
     3     1    17 1   
     4     2     3 1   
     5     2     8 1   
     6     2    34 1   
     7     2    35 1   
     8     3     5 1   
     9     3    36 1   
    10     3    37 1   
    11     4     9 2   
    12     5    38 1   
    13     5    39 1   
    14     6    12 ar  
    15     6    29 ar  
    16     6    65 1   
    17     7    14 1   
    18     7    15 1   
    19     7    66 2   
    20     8    14 1   
    21     8    40 1   
    22     8    41 1   
    23     9    16 1   
    24    10    11 ar  
    25    10    15 1   
    26    10    28 ar  
    27    11    12 ar  
    28    11    42 1   
    29    12    43 1   
    30    13    25 1   
    31    13    26 1   
    32    13    44 1   
    33    14    28 1   
    34    16    17 2   
    35    16    18 1   
    36    17    30 1   
    37    18    19 1   
    38    18    48 1   
    39    18    49 1   
    40    19    20 1   
    41    19    50 1   
    42    19    51 1   
    43    20    21 1   
    44    20    52 1   
    45    20    53 1   
    46    21    22 1   
    47    21    54 1   
    48    21    55 1   
    49    22    23 1   
    50    22    56 1   
    51    22    57 1   
    52    23    27 1   
    53    23    33 1   
    54    23    58 1   
    55    24    25 1   
    56    24    33 1   
    57    24    59 1   
    58    24    60 1   
    59    25    27 1   
    60    25    61 1   
    61    26    31 1   
    62    26    32 2   
    63    27    31 1   
    64    27    62 1   
    65    28    29 ar  
    66    29    63 1   
    67    31    64 1   
    68    45    65 1   
    69    46    65 1   
    70    47    65 1   
@<TRIPOS>SUBSTRUCTURE
     1 WNE         1 TEMP              0 ****  ****    0 ROOT
