@<TRIPOS>MOLECULE
WNF
   37    38     1     0     0
SMALL
No Charge or Current Charge


@<TRIPOS>ATOM
      1 C01          7.9120     8.5770    17.8160 c6         1 WNF      -0.078400
      2 C02          7.1760     7.9000    18.9980 c6         1 WNF      -0.069400
      3 C04          6.5380     5.9040    17.4900 c6         1 WNF      -0.041700
      4 C05          7.3210     6.5840    16.3110 c6         1 WNF      -0.182700
      5 C06          7.3290     8.1360    16.4500 c6         1 WNF      -0.054400
      6 C07          6.8820     6.1110    14.9000 c          1 WNF       0.705000
      7 O08          5.8040     6.4850    14.4620 o          1 WNF      -0.734500
      8 C10          4.9910     6.1360    17.4460 c3         1 WNF       0.165600
      9 C15          2.1250     6.2090    17.9340 ca         1 WNF      -0.194000
     10 C16          0.7440     6.2270    18.2120 ca         1 WNF      -0.044300
     11 C17          0.2530     5.5330    19.3330 ca         1 WNF      -0.170000
     12 C18          1.1310     4.8300    20.1740 ca         1 WNF      -0.084000
     13 C19          2.5070     4.8180    19.8940 ca         1 WNF      -0.162000
     14 C20         -0.2090     6.9850    17.3000 c3         1 WNF      -0.045800
     15 C03          7.1710     6.3570    18.8440 c6         1 WNF      -0.071400
     16 O09          7.6720     5.4410    14.2520 o          1 WNF      -0.734500
     17 O13          4.3710     5.4550    18.5530 os         1 WNF      -0.364100
     18 C14          3.0110     5.5030    18.7780 ca         1 WNF       0.169100
     19 H22          7.8470     9.6690    17.9130 hc         1 WNF       0.018200
     20 H21          8.9810     8.3250    17.8570 hc         1 WNF       0.018200
     21 H23          7.6650     8.1750    19.9420 hc         1 WNF       0.020700
     22 H24          6.1470     8.2780    19.0630 hc         1 WNF       0.020700
     23 H12          6.6720     4.8170    17.4010 hc         1 WNF       0.072700
     24 H11          8.3600     6.2410    16.4200 hc         1 WNF       0.036700
     25 H27          6.3140     8.5370    16.3320 hc         1 WNF       0.041700
     26 H28          7.9280     8.5760    15.6400 hc         1 WNF       0.041700
     27 H30          4.7790     7.2110    17.4880 h1         1 WNF       0.051200
     28 H31          4.5910     5.7400    16.5050 h1         1 WNF       0.051200
     29 H34          0.7460     4.2960    21.0400 ha         1 WNF       0.098000
     30 H35          3.1880     4.2740    20.5440 ha         1 WNF       0.119000
     31 H36         -0.5040     6.3660    16.4440 hc         1 WNF       0.037367
     32 H37         -1.1220     7.2810    17.8300 hc         1 WNF       0.037367
     33 H38          0.2560     7.8980    16.9100 hc         1 WNF       0.037367
     34 H25          8.2040     5.9870    18.9030 hc         1 WNF       0.029200
     35 H26          6.6440     5.9000    19.6930 hc         1 WNF       0.029200
     36 H32          2.4890     6.7450    17.0630 ha         1 WNF       0.132000
     37 H33         -0.8120     5.5370    19.5540 ha         1 WNF       0.098000
@<TRIPOS>BOND
     1     1     2 1   
     2     1     5 1   
     3     1    19 1   
     4     1    20 1   
     5     2    15 1   
     6     2    21 1   
     7     2    22 1   
     8     3     4 1   
     9     3     8 1   
    10     3    15 1   
    11     3    23 1   
    12     4     5 1   
    13     4     6 1   
    14     4    24 1   
    15     5    25 1   
    16     5    26 1   
    17     6     7 1   
    18     6    16 1   
    19     8    17 1   
    20     8    27 1   
    21     8    28 1   
    22     9    10 ar  
    23     9    18 ar  
    24     9    36 1   
    25    10    11 ar  
    26    10    14 1   
    27    11    12 ar  
    28    11    37 1   
    29    12    13 ar  
    30    12    29 1   
    31    13    18 ar  
    32    13    30 1   
    33    14    31 1   
    34    14    32 1   
    35    14    33 1   
    36    15    34 1   
    37    15    35 1   
    38    17    18 1   
@<TRIPOS>SUBSTRUCTURE
     1 WNF         1 TEMP              0 ****  ****    0 ROOT
