@<TRIPOS>MOLECULE
WNF
   37    38     1     0     0
SMALL
abcg2


@<TRIPOS>ATOM
      1 C01          7.9020     8.5830    17.7740 c6         1 WNF      -0.078400
      2 C02          7.2060     7.9590    18.9850 c6         1 WNF      -0.069400
      3 C04          6.5190     5.9530    17.5580 c6         1 WNF      -0.041700
      4 C05          7.2190     6.6090    16.3440 c6         1 WNF      -0.182700
      5 C06          7.2540     8.1350    16.4620 c6         1 WNF      -0.054400
      6 C07          6.6340     6.0800    15.0130 c          1 WNF       0.705000
      7 O08          6.0620     6.8940    14.2430 o          1 WNF      -0.734500
      8 C10          5.0150     6.1850    17.5220 c3         1 WNF       0.165600
      9 C15          2.2140     6.2190    17.9400 ca         1 WNF      -0.194000
     10 C16          0.8360     6.2200    18.1820 ca         1 WNF      -0.044300
     11 C17          0.3300     5.4740    19.2430 ca         1 WNF      -0.170000
     12 C18          1.1920     4.7300    20.0480 ca         1 WNF      -0.084000
     13 C19          2.5560     4.7250    19.8090 ca         1 WNF      -0.162000
     14 C20         -0.0820     7.0040    17.2810 c3         1 WNF      -0.045800
     15 C03          7.1590     6.4340    18.8690 c6         1 WNF      -0.071400
     16 O09          6.7740     4.8460    14.8000 o          1 WNF      -0.734500
     17 O13          4.4210     5.4200    18.5800 os         1 WNF      -0.364100
     18 C14          3.0730     5.4750    18.7480 ca         1 WNF       0.169100
     19 H22          7.8870     9.6740    17.8490 hc         1 WNF       0.018200
     20 H21          8.9570     8.2810    17.7750 hc         1 WNF       0.018200
     21 H23          7.7210     8.2420    19.9070 hc         1 WNF       0.020700
     22 H24          6.1890     8.3580    19.0630 hc         1 WNF       0.020700
     23 H12          6.6680     4.8740    17.4740 hc         1 WNF       0.072700
     24 H11          8.2550     6.2510    16.3740 hc         1 WNF       0.036700
     25 H27          6.2390     8.5360    16.3980 hc         1 WNF       0.041700
     26 H28          7.7990     8.5500    15.6120 hc         1 WNF       0.041700
     27 H30          4.7580     7.2390    17.6560 h1         1 WNF       0.051200
     28 H31          4.6020     5.8540    16.5660 h1         1 WNF       0.051200
     29 H34          0.7940     4.1510    20.8730 ha         1 WNF       0.098000
     30 H35          3.2350     4.1540    20.4310 ha         1 WNF       0.119000
     31 H36         -0.3360     6.4240    16.3890 hc         1 WNF       0.037367
     32 H37         -1.0140     7.2530    17.7880 hc         1 WNF       0.037367
     33 H38          0.3890     7.9290    16.9440 hc         1 WNF       0.037367
     34 H25          8.1830     6.0460    18.9080 hc         1 WNF       0.029200
     35 H26          6.6280     6.0040    19.7210 hc         1 WNF       0.029200
     36 H32          2.6010     6.8020    17.1170 ha         1 WNF       0.132000
     37 H33         -0.7340     5.4740    19.4420 ha         1 WNF       0.098000
@<TRIPOS>BOND
     1     1     2 1   
     2     1     5 1   
     3     1    19 1   
     4     1    20 1   
     5     2    15 1   
     6     2    21 1   
     7     2    22 1   
     8     3     4 1   
     9     3     8 1   
    10     3    15 1   
    11     3    23 1   
    12     4     5 1   
    13     4     6 1   
    14     4    24 1   
    15     5    25 1   
    16     5    26 1   
    17     6     7 1   
    18     6    16 1   
    19     8    17 1   
    20     8    27 1   
    21     8    28 1   
    22     9    10 ar  
    23     9    18 ar  
    24     9    36 1   
    25    10    11 ar  
    26    10    14 1   
    27    11    12 ar  
    28    11    37 1   
    29    12    13 ar  
    30    12    29 1   
    31    13    18 ar  
    32    13    30 1   
    33    14    31 1   
    34    14    32 1   
    35    14    33 1   
    36    15    34 1   
    37    15    35 1   
    38    17    18 1   
@<TRIPOS>SUBSTRUCTURE
     1 WNF         1 TEMP              0 ****  ****    0 ROOT
