@<TRIPOS>MOLECULE
WNG
   31    33     1     0     0
SMALL
No Charge or Current Charge


@<TRIPOS>ATOM
      1 C10        -32.1900    -8.0070   -18.6520 cc         1 WNG       0.651700
      2 C13        -33.8150    -5.8890   -16.2790 ca         1 WNG      -0.111000
      3 C15        -35.9000    -7.1790   -16.2290 ca         1 WNG      -0.126000
      4 C17        -34.0730    -7.8850   -17.6460 ca         1 WNG       0.100400
      5 C01        -31.0790    -9.4920   -20.3200 c2         1 WNG       0.059000
      6 C02        -29.9400    -9.7210   -21.0080 ce         1 WNG      -0.273200
      7 C03        -28.6770    -8.9350   -20.9230 ca         1 WNG      -0.026800
      8 C04        -28.0680    -8.6620   -19.6820 ca         1 WNG      -0.119500
      9 C05        -26.8710    -7.9270   -19.6240 ca         1 WNG      -0.105500
     10 C06        -26.2700    -7.4690   -20.8080 ca         1 WNG      -0.116000
     11 C07        -26.8630    -7.7520   -22.0500 ca         1 WNG      -0.105500
     12 C08        -28.0600    -8.4870   -22.1060 ca         1 WNG      -0.119500
     13 C12        -33.3360    -6.8200   -17.2080 ca         1 WNG      -0.081200
     14 C14        -35.1240    -6.0800   -15.7860 ca         1 WNG      -0.104000
     15 C16        -35.3750    -8.0950   -17.1690 ca         1 WNG      -0.064000
     16 N09        -31.1610    -8.4060   -19.4490 nu         1 WNG      -0.770200
     17 N11        -32.1340    -6.8890   -17.8440 na         1 WNG      -0.349600
     18 N18        -33.3600    -8.6520   -18.5650 nd         1 WNG      -0.632100
     19 H1         -33.2060    -5.0510   -15.9490 ha         1 WNG       0.115000
     20 H2         -36.9080    -7.3190   -15.8440 ha         1 WNG       0.113000
     21 H3         -31.9800   -10.1080   -20.4310 h4         1 WNG       0.220000
     22 H4         -29.9110   -10.5420   -21.7260 ha         1 WNG       0.193000
     23 H5         -28.5130    -9.0320   -18.7610 ha         1 WNG       0.110000
     24 H6         -26.4060    -7.7190   -18.6630 ha         1 WNG       0.110500
     25 H7         -25.3420    -6.9010   -20.7640 ha         1 WNG       0.113000
     26 H8         -26.3960    -7.4030   -22.9680 ha         1 WNG       0.110500
     27 H9         -28.5150    -8.7020   -23.0700 ha         1 WNG       0.110000
     28 H10        -35.5370    -5.3810   -15.0620 ha         1 WNG       0.113000
     29 H11        -35.9640    -8.9410   -17.5150 ha         1 WNG       0.128000
     30 H12        -30.3520    -7.7920   -19.4080 hn         1 WNG       0.500000
     31 H13        -31.3520    -6.2580   -17.7510 hn         1 WNG       0.355000
@<TRIPOS>BOND
     1     1    16 1   
     2     1    17 1   
     3     1    18 2   
     4     2    13 ar  
     5     2    14 ar  
     6     2    19 1   
     7     3    14 ar  
     8     3    15 ar  
     9     3    20 1   
    10     4    13 ar  
    11     4    15 ar  
    12     4    18 1   
    13     5     6 2   
    14     5    16 1   
    15     5    21 1   
    16     6     7 1   
    17     6    22 1   
    18     7     8 ar  
    19     7    12 ar  
    20     8     9 ar  
    21     8    23 1   
    22     9    10 ar  
    23     9    24 1   
    24    10    11 ar  
    25    10    25 1   
    26    11    12 ar  
    27    11    26 1   
    28    12    27 1   
    29    13    17 1   
    30    14    28 1   
    31    15    29 1   
    32    16    30 1   
    33    17    31 1   
@<TRIPOS>SUBSTRUCTURE
     1 WNG         1 TEMP              0 ****  ****    0 ROOT
