@<TRIPOS>MOLECULE
WNG
   31    33     1     0     0
SMALL
abcg2


@<TRIPOS>ATOM
      1 C10        -32.1790    -7.8360   -18.5060 cc         1 WNG       0.651700
      2 C13        -34.0390    -5.9790   -16.0980 ca         1 WNG      -0.111000
      3 C15        -36.0260    -7.3620   -16.3080 ca         1 WNG      -0.126000
      4 C17        -34.1160    -7.8860   -17.6360 ca         1 WNG       0.100400
      5 C01        -31.0210    -9.1080   -20.1840 c2         1 WNG       0.059000
      6 C02        -29.9720    -9.4410   -20.9490 ce         1 WNG      -0.273200
      7 C03        -28.6310    -8.8510   -20.9520 ca         1 WNG      -0.026800
      8 C04        -27.9850    -8.4100   -19.7920 ca         1 WNG      -0.119500
      9 C05        -26.7150    -7.8520   -19.8510 ca         1 WNG      -0.105500
     10 C06        -26.0540    -7.7340   -21.0660 ca         1 WNG      -0.116000
     11 C07        -26.6720    -8.1920   -22.2230 ca         1 WNG      -0.105500
     12 C08        -27.9400    -8.7480   -22.1650 ca         1 WNG      -0.119500
     13 C12        -33.4500    -6.7950   -17.0480 ca         1 WNG      -0.081200
     14 C14        -35.3460    -6.2830   -15.7350 ca         1 WNG      -0.104000
     15 C16        -35.4240    -8.1740   -17.2610 ca         1 WNG      -0.064000
     16 N09        -31.0670    -8.1040   -19.2420 nu         1 WNG      -0.770200
     17 N11        -32.2050    -6.7940   -17.6330 na         1 WNG      -0.349600
     18 N18        -33.2940    -8.5150   -18.5420 nd         1 WNG      -0.632100
     19 H1         -33.5120    -5.1430   -15.6570 ha         1 WNG       0.115000
     20 H2         -37.0430    -7.5680   -16.0020 ha         1 WNG       0.113000
     21 H3         -31.9550    -9.6410   -20.3000 h4         1 WNG       0.220000
     22 H4         -30.1600   -10.2080   -21.6900 ha         1 WNG       0.193000
     23 H5         -28.4530    -8.5340   -18.8230 ha         1 WNG       0.110000
     24 H6         -26.2360    -7.5220   -18.9380 ha         1 WNG       0.110500
     25 H7         -25.0650    -7.2970   -21.1100 ha         1 WNG       0.113000
     26 H8         -26.1630    -8.1150   -23.1760 ha         1 WNG       0.110500
     27 H9         -28.4110    -9.0990   -23.0750 ha         1 WNG       0.110000
     28 H10        -35.8470    -5.6720   -14.9960 ha         1 WNG       0.113000
     29 H11        -35.9570    -9.0070   -17.7020 ha         1 WNG       0.128000
     30 H12        -30.2880    -7.4690   -19.1610 hn         1 WNG       0.500000
     31 H13        -31.4510    -6.1540   -17.4410 hn         1 WNG       0.355000
@<TRIPOS>BOND
     1     1    16 1   
     2     1    17 1   
     3     1    18 2   
     4     2    13 ar  
     5     2    14 ar  
     6     2    19 1   
     7     3    14 ar  
     8     3    15 ar  
     9     3    20 1   
    10     4    13 ar  
    11     4    15 ar  
    12     4    18 1   
    13     5     6 2   
    14     5    16 1   
    15     5    21 1   
    16     6     7 1   
    17     6    22 1   
    18     7     8 ar  
    19     7    12 ar  
    20     8     9 ar  
    21     8    23 1   
    22     9    10 ar  
    23     9    24 1   
    24    10    11 ar  
    25    10    25 1   
    26    11    12 ar  
    27    11    26 1   
    28    12    27 1   
    29    13    17 1   
    30    14    28 1   
    31    15    29 1   
    32    16    30 1   
    33    17    31 1   
@<TRIPOS>SUBSTRUCTURE
     1 WNG         1 TEMP              0 ****  ****    0 ROOT
