@<TRIPOS>MOLECULE
WNH
   48    51     1     0     0
SMALL
No Charge or Current Charge


@<TRIPOS>ATOM
      1 O1          -3.2820    -2.3230    50.5760 oh         1 WNH      -0.647000
      2 C7          -3.8850     1.1910    51.0430 ca         1 WNH       0.392900
      3 C6          -4.2080     3.0070    49.6540 ca         1 WNH       0.064300
      4 C1          -5.2870     2.3300    49.0530 ca         1 WNH      -0.245000
      5 N1          -8.1380    -1.4860    48.6600 nc         1 WNH      -0.533800
      6 C5          -5.6080     1.0460    49.5250 ca         1 WNH       0.276500
      7 C4          -6.7150     0.2660    48.9580 cd         1 WNH      -0.300500
      8 C3          -7.5660     0.6450    47.9540 cc         1 WNH      -0.123000
      9 C2          -7.1060    -1.0340    49.3470 cd         1 WNH       0.304900
     10 C8          -9.0120    -0.4140    45.3570 c6         1 WNH      -0.129900
     11 C9         -10.5980     0.5820    47.0810 c6         1 WNH      -0.129900
     12 C10         -2.1810    -0.1930    53.7000 cy         1 WNH      -0.122400
     13 C11        -10.1870    -0.4600    44.3540 c6         1 WNH       0.149800
     14 C12        -11.7290     0.5080    46.0310 c6         1 WNH       0.149800
     15 C13         -1.9320     1.0410    52.7710 cy         1 WNH       0.217800
     16 C14         -9.5320    -0.5140    46.8150 c6         1 WNH       0.093300
     17 C15         -3.0650    -0.7980    52.5530 cy         1 WNH       0.232500
     18 C16         -2.4090    -1.8570    51.6220 c3         1 WNH       0.162600
     19 C17         -3.7990     4.4140    49.1980 c3         1 WNH       0.248700
     20 N2          -4.9050     0.4810    50.5250 nb         1 WNH      -0.213000
     21 N3          -3.5100     2.4280    50.6550 nb         1 WNH      -0.218000
     22 N4          -8.4210    -0.4450    47.7970 na         1 WNH       0.123800
     23 N5         -11.1780     0.6020    44.6560 n7         1 WNH      -0.845400
     24 N6          -3.1730     0.6160    52.0720 nn         1 WNH      -0.757300
     25 F1          -3.5430     4.4510    47.8700 f          1 WNH      -0.106000
     26 F2          -4.7800     5.3150    49.4340 f          1 WNH      -0.106000
     27 F3          -2.6870     4.8740    49.8210 f          1 WNH      -0.106000
     28 H1          -2.7630    -2.9550    50.0310 ho         1 WNH       0.441000
     29 H2          -5.8520     2.7920    48.2490 ha         1 WNH       0.141000
     30 H3          -7.6400     1.5490    47.3620 h4         1 WNH       0.155000
     31 H4          -6.6660    -1.6620    50.1130 h4         1 WNH       0.062100
     32 H6          -8.4470     0.5170    45.2150 hc         1 WNH       0.056950
     33 H7         -11.0190     0.4590    48.0880 hc         1 WNH       0.056950
     34 H8         -10.1370     1.5790    47.0530 hc         1 WNH       0.056950
     35 H9          -2.7400     0.0450    54.6110 hc         1 WNH       0.063700
     36 H10         -1.2910    -0.7670    53.9730 hc         1 WNH       0.063700
     37 H11         -9.8050    -0.3340    43.3300 h1         1 WNH       0.060700
     38 H12        -10.6750    -1.4470    44.4040 h1         1 WNH       0.060700
     39 H13        -12.4470     1.3250    46.2020 h1         1 WNH       0.060700
     40 H14        -12.2770    -0.4410    46.1460 h1         1 WNH       0.060700
     41 H15         -1.0170     0.9710    52.1690 h1         1 WNH       0.067200
     42 H16         -1.9750     2.0050    53.2930 h1         1 WNH       0.067200
     43 H17        -10.0170    -1.4940    46.9350 h1         1 WNH       0.091700
     44 H18         -4.0020    -1.2120    52.9480 h1         1 WNH       0.082700
     45 H19         -2.1010    -2.7020    52.2520 h1         1 WNH       0.028200
     46 H20         -1.5000    -1.4180    51.1910 h1         1 WNH       0.028200
     47 H21        -10.7160     1.5150    44.5540 hn         1 WNH       0.405000
     48 H5          -8.3160    -1.2380    45.1490 hc         1 WNH       0.056950
@<TRIPOS>BOND
     1     1    18 1   
     2     1    28 1   
     3     2    20 ar  
     4     2    21 ar  
     5     2    24 1   
     6     3     4 ar  
     7     3    19 1   
     8     3    21 ar  
     9     4     6 ar  
    10     4    29 1   
    11     5     9 2   
    12     5    22 1   
    13     6     7 1   
    14     6    20 ar  
    15     7     8 2   
    16     7     9 1   
    17     8    22 1   
    18     8    30 1   
    19     9    31 1   
    20    10    13 1   
    21    10    16 1   
    22    10    32 1   
    23    10    48 1   
    24    11    14 1   
    25    11    16 1   
    26    11    33 1   
    27    11    34 1   
    28    12    15 1   
    29    12    17 1   
    30    12    35 1   
    31    12    36 1   
    32    13    23 1   
    33    13    37 1   
    34    13    38 1   
    35    14    23 1   
    36    14    39 1   
    37    14    40 1   
    38    15    24 1   
    39    15    41 1   
    40    15    42 1   
    41    16    22 1   
    42    16    43 1   
    43    17    18 1   
    44    17    24 1   
    45    17    44 1   
    46    18    45 1   
    47    18    46 1   
    48    19    25 1   
    49    19    26 1   
    50    19    27 1   
    51    23    47 1   
@<TRIPOS>SUBSTRUCTURE
     1 WNH         1 TEMP              0 ****  ****    0 ROOT
