@<TRIPOS>MOLECULE
WNH
   48    51     1     0     0
SMALL
abcg2


@<TRIPOS>ATOM
      1 O1          -3.3290    -2.5220    50.9980 oh         1 WNH      -0.647000
      2 C7          -3.6240     1.0880    50.7460 ca         1 WNH       0.392900
      3 C6          -4.0130     2.9020    49.4500 ca         1 WNH       0.064300
      4 C1          -5.0510     2.2730    48.7990 ca         1 WNH      -0.245000
      5 N1          -7.8490    -1.5230    48.2520 nc         1 WNH      -0.533800
      6 C5          -5.3480     0.9670    49.2360 ca         1 WNH       0.276500
      7 C4          -6.4390     0.1980    48.6660 cd         1 WNH      -0.300500
      8 C3          -7.3730     0.5970    47.7150 cc         1 WNH      -0.123000
      9 C2          -6.7960    -1.1390    48.9590 cd         1 WNH       0.304900
     10 C8          -9.0980     0.0220    45.2380 c6         1 WNH      -0.129900
     11 C9         -10.5470     0.2490    47.2830 c6         1 WNH      -0.129900
     12 C10         -2.4240     0.0010    53.7020 cy         1 WNH      -0.122400
     13 C11        -10.3790    -0.0410    44.3980 c6         1 WNH       0.149800
     14 C12        -11.7750     0.1820    46.3680 c6         1 WNH       0.149800
     15 C13         -2.1140     1.1810    52.7510 cy         1 WNH       0.217800
     16 C14         -9.3770    -0.5020    46.6450 c6         1 WNH       0.093300
     17 C15         -3.2120    -0.6700    52.5460 cy         1 WNH       0.232500
     18 C16         -2.6280    -1.9990    52.1230 c3         1 WNH       0.162600
     19 C17         -3.6460     4.3380    49.1250 c3         1 WNH       0.248700
     20 N2          -4.6350     0.3880    50.2030 nb         1 WNH      -0.213000
     21 N3          -3.2900     2.3530    50.4190 nb         1 WNH      -0.218000
     22 N4          -8.1850    -0.4490    47.4940 na         1 WNH       0.123800
     23 N5         -11.5190     0.6500    45.0040 n7         1 WNH      -0.845400
     24 N6          -2.8730     0.4900    51.6940 nn         1 WNH      -0.757300
     25 F1          -4.1550     4.7430    47.9460 f          1 WNH      -0.106000
     26 F2          -4.1220     5.1830    50.0700 f          1 WNH      -0.106000
     27 F3          -2.3150     4.5230    49.0690 f          1 WNH      -0.106000
     28 H1          -2.9130    -3.3560    50.7470 ho         1 WNH       0.441000
     29 H2          -5.6080     2.7530    48.0110 ha         1 WNH       0.141000
     30 H3          -7.5070     1.5360    47.2040 h4         1 WNH       0.155000
     31 H4          -6.3180    -1.8210    49.6440 h4         1 WNH       0.062100
     32 H6          -8.7570     1.0600    45.2900 hc         1 WNH       0.056950
     33 H7         -10.7750    -0.1810    48.2610 hc         1 WNH       0.056950
     34 H8         -10.2610     1.2940    47.4350 hc         1 WNH       0.056950
     35 H9          -3.0320     0.2660    54.5620 hc         1 WNH       0.063700
     36 H10         -1.5520    -0.5620    54.0300 hc         1 WNH       0.063700
     37 H11        -10.1950     0.3860    43.4110 h1         1 WNH       0.060700
     38 H12        -10.6620    -1.0890    44.2510 h1         1 WNH       0.060700
     39 H13        -12.5880     0.7710    46.7950 h1         1 WNH       0.060700
     40 H14        -12.1220    -0.8550    46.3070 h1         1 WNH       0.060700
     41 H15         -1.0620     1.3300    52.5050 h1         1 WNH       0.067200
     42 H16         -2.5570     2.1360    53.0320 h1         1 WNH       0.067200
     43 H17         -9.6230    -1.5630    46.5860 h1         1 WNH       0.091700
     44 H18         -4.2870    -0.7610    52.7090 h1         1 WNH       0.082700
     45 H19         -2.7090    -2.6790    52.9800 h1         1 WNH       0.028200
     46 H20         -1.5650    -1.8680    51.8910 h1         1 WNH       0.028200
     47 H21        -11.3240     1.6470    45.0300 hn         1 WNH       0.405000
     48 H5          -8.3060    -0.5670    44.7700 hc         1 WNH       0.056950
@<TRIPOS>BOND
     1     1    18 1   
     2     1    28 1   
     3     2    20 ar  
     4     2    21 ar  
     5     2    24 1   
     6     3     4 ar  
     7     3    19 1   
     8     3    21 ar  
     9     4     6 ar  
    10     4    29 1   
    11     5     9 2   
    12     5    22 1   
    13     6     7 1   
    14     6    20 ar  
    15     7     8 2   
    16     7     9 1   
    17     8    22 1   
    18     8    30 1   
    19     9    31 1   
    20    10    13 1   
    21    10    16 1   
    22    10    32 1   
    23    10    48 1   
    24    11    14 1   
    25    11    16 1   
    26    11    33 1   
    27    11    34 1   
    28    12    15 1   
    29    12    17 1   
    30    12    35 1   
    31    12    36 1   
    32    13    23 1   
    33    13    37 1   
    34    13    38 1   
    35    14    23 1   
    36    14    39 1   
    37    14    40 1   
    38    15    24 1   
    39    15    41 1   
    40    15    42 1   
    41    16    22 1   
    42    16    43 1   
    43    17    18 1   
    44    17    24 1   
    45    17    44 1   
    46    18    45 1   
    47    18    46 1   
    48    19    25 1   
    49    19    26 1   
    50    19    27 1   
    51    23    47 1   
@<TRIPOS>SUBSTRUCTURE
     1 WNH         1 TEMP              0 ****  ****    0 ROOT
