@<TRIPOS>MOLECULE
WNJ
   28    29     1     0     0
SMALL
No Charge or Current Charge


@<TRIPOS>ATOM
      1 C10        -33.2840    -8.5430   -19.4290 c5         1 WNJ      -0.109400
      2 N12        -33.2120    -6.1110   -19.3890 n7         1 WNJ      -0.823400
      3 C13        -32.4850    -6.6340   -20.5650 c5         1 WNJ       0.136800
      4 C01        -31.3110    -8.9050   -21.0880 c3         1 WNJ       0.241800
      5 C03        -28.8930    -8.1380   -20.9240 ca         1 WNJ       0.615900
      6 C04        -28.5540    -8.7770   -19.7240 ca         1 WNJ      -0.236000
      7 C05        -27.3170    -8.4820   -19.1330 ca         1 WNJ      -0.034000
      8 C06        -26.4870    -7.5610   -19.7900 ca         1 WNJ      -0.228000
      9 C07        -26.9200    -6.9830   -20.9970 ca         1 WNJ       0.388900
     10 C09        -31.9640    -7.9850   -20.0290 c5         1 WNJ      -0.138700
     11 C11        -33.9930    -7.2690   -18.8790 c5         1 WNJ       0.133800
     12 N02        -30.0550    -8.3450   -21.6070 nu         1 WNJ      -0.937100
     13 N08        -28.1130    -7.2690   -21.5640 nb         1 WNJ      -0.757000
     14 H1         -33.9030    -9.0240   -20.1960 hc         1 WNJ       0.047700
     15 H2         -33.1050    -9.2900   -18.6470 hc         1 WNJ       0.047700
     16 H3         -32.5090    -5.8700   -18.6800 hn         1 WNJ       0.399000
     17 H5         -31.6700    -5.9640   -20.8740 h1         1 WNJ       0.057200
     18 H6         -33.1600    -6.7720   -21.4230 h1         1 WNJ       0.057200
     19 H7         -32.0200    -9.0500   -21.9150 h1         1 WNJ       0.052200
     20 H8         -31.1250    -9.8920   -20.6420 h1         1 WNJ       0.052200
     21 H9         -29.2300    -9.4870   -19.2600 ha         1 WNJ       0.120000
     22 H10        -27.0110    -8.9520   -18.2000 ha         1 WNJ       0.112000
     23 H11        -25.5170    -7.2960   -19.3790 ha         1 WNJ       0.123000
     24 H12        -26.2900    -6.2690   -21.5260 h4         1 WNJ       0.013100
     25 H13        -31.2270    -7.8260   -19.2330 hc         1 WNJ       0.058700
     26 H14        -34.0280    -7.2610   -17.7800 h1         1 WNJ       0.054200
     27 H15        -35.0310    -7.2280   -19.2400 h1         1 WNJ       0.054200
     28 H16        -30.1020    -7.7700   -22.4430 hn         1 WNJ       0.496000
@<TRIPOS>BOND
     1     1    10 1   
     2     1    11 1   
     3     1    14 1   
     4     1    15 1   
     5     2     3 1   
     6     2    11 1   
     7     2    16 1   
     8     3    10 1   
     9     3    17 1   
    10     3    18 1   
    11     4    10 1   
    12     4    12 1   
    13     4    19 1   
    14     4    20 1   
    15     5     6 ar  
    16     5    12 1   
    17     5    13 ar  
    18     6     7 ar  
    19     6    21 1   
    20     7     8 ar  
    21     7    22 1   
    22     8     9 ar  
    23     8    23 1   
    24     9    13 ar  
    25     9    24 1   
    26    10    25 1   
    27    11    26 1   
    28    11    27 1   
    29    12    28 1   
@<TRIPOS>SUBSTRUCTURE
     1 WNJ         1 TEMP              0 ****  ****    0 ROOT
