@<TRIPOS>MOLECULE
WNJ
   28    29     1     0     0
SMALL
abcg2


@<TRIPOS>ATOM
      1 C10        -33.1790    -8.5600   -19.2220 c5         1 WNJ      -0.109400
      2 N12        -33.4840    -6.1700   -19.4300 n7         1 WNJ      -0.823400
      3 C13        -32.3580    -6.5400   -20.2750 c5         1 WNJ       0.136800
      4 C01        -31.2860    -8.7720   -20.9300 c3         1 WNJ       0.241800
      5 C03        -28.9150    -8.0390   -20.9910 ca         1 WNJ       0.615900
      6 C04        -28.5650    -8.6950   -19.7950 ca         1 WNJ      -0.236000
      7 C05        -27.2860    -8.5310   -19.3050 ca         1 WNJ      -0.034000
      8 C06        -26.3750    -7.7300   -19.9890 ca         1 WNJ      -0.228000
      9 C07        -26.8190    -7.1250   -21.1510 ca         1 WNJ       0.388900
     10 C09        -31.8980    -7.9340   -19.8110 c5         1 WNJ      -0.138700
     11 C11        -34.2180    -7.4190   -19.2560 c5         1 WNJ       0.133800
     12 N02        -30.1370    -8.1710   -21.5650 nu         1 WNJ      -0.937100
     13 N08        -28.0430    -7.2660   -21.6450 nb         1 WNJ      -0.757000
     14 H1         -33.5140    -9.4230   -19.8040 hc         1 WNJ       0.047700
     15 H2         -33.0090    -8.9140   -18.2040 hc         1 WNJ       0.047700
     16 H3         -33.1230    -5.8800   -18.5280 hn         1 WNJ       0.399000
     17 H5         -31.5710    -5.7870   -20.2270 h1         1 WNJ       0.057200
     18 H6         -32.6980    -6.5900   -21.3160 h1         1 WNJ       0.057200
     19 H7         -32.0350    -8.9270   -21.7100 h1         1 WNJ       0.052200
     20 H8         -31.0250    -9.7670   -20.5610 h1         1 WNJ       0.052200
     21 H9         -29.2740    -9.3160   -19.2660 ha         1 WNJ       0.120000
     22 H10        -26.9990    -9.0270   -18.3860 ha         1 WNJ       0.112000
     23 H11        -25.3660    -7.5780   -19.6330 ha         1 WNJ       0.123000
     24 H12        -26.1510    -6.4860   -21.7200 h4         1 WNJ       0.013100
     25 H13        -31.1580    -7.8090   -19.0140 hc         1 WNJ       0.058700
     26 H14        -34.8380    -7.3790   -18.3610 h1         1 WNJ       0.054200
     27 H15        -34.8910    -7.5530   -20.1070 h1         1 WNJ       0.054200
     28 H16        -30.3040    -7.5670   -22.3530 hn         1 WNJ       0.496000
@<TRIPOS>BOND
     1     1    10 1   
     2     1    11 1   
     3     1    14 1   
     4     1    15 1   
     5     2     3 1   
     6     2    11 1   
     7     2    16 1   
     8     3    10 1   
     9     3    17 1   
    10     3    18 1   
    11     4    10 1   
    12     4    12 1   
    13     4    19 1   
    14     4    20 1   
    15     5     6 ar  
    16     5    12 1   
    17     5    13 ar  
    18     6     7 ar  
    19     6    21 1   
    20     7     8 ar  
    21     7    22 1   
    22     8     9 ar  
    23     8    23 1   
    24     9    13 ar  
    25     9    24 1   
    26    10    25 1   
    27    11    26 1   
    28    11    27 1   
    29    12    28 1   
@<TRIPOS>SUBSTRUCTURE
     1 WNJ         1 TEMP              0 ****  ****    0 ROOT
