@<TRIPOS>MOLECULE
WNK
   68    71     1     0     0
SMALL
No Charge or Current Charge


@<TRIPOS>ATOM
      1 C10         20.3760     7.8180    31.3380 ca         1 WNK       0.619900
      2 C13         26.5910     2.1420    30.7210 ca         1 WNK       0.024000
      3 C15         27.5620     4.2870    31.3680 ca         1 WNK       0.024000
      4 C17         28.4800     2.2150    32.2530 ca         1 WNK       0.188100
      5 C20         21.6660    11.3260    31.8880 cc         1 WNK      -0.166000
      6 C21         21.0340    12.4680    32.2840 cd         1 WNK      -0.139000
      7 C11         21.0780     9.0090    31.1170 ca         1 WNK      -0.227000
      8 C12         20.9890    10.0360    32.0700 ca         1 WNK       0.090000
      9 C14         26.6070     3.5500    30.6390 ca         1 WNK      -0.360500
     10 C16         28.4970     3.6150    32.1740 ca         1 WNK      -0.194000
     11 C18         27.5310     1.4810    31.5300 ca         1 WNK      -0.194000
     12 C19         22.7830    11.7220    31.1100 cc         1 WNK       0.320500
     13 C01         25.9970     9.2480    29.6420 ca         1 WNK      -0.129000
     14 C02         25.7570    10.5060    29.0730 ca         1 WNK       0.126100
     15 C03         24.7050    11.3060    29.5480 ca         1 WNK      -0.178000
     16 C04         23.8510    10.8470    30.5800 ca         1 WNK      -0.082500
     17 C05         24.1380     9.5950    31.1710 ca         1 WNK      -0.130000
     18 C06         25.1950     8.7980    30.7000 ca         1 WNK      -0.081000
     19 C07         20.1600     9.7990    33.1810 ca         1 WNK      -0.230000
     20 C08         19.4990     8.5670    33.3060 ca         1 WNK       0.382900
     21 C25         21.1790     6.5200    29.2880 c3         1 WNK       0.242800
     22 C26         22.6580     6.2770    29.6490 c3         1 WNK      -0.116400
     23 C27         22.8990     4.9790    30.4470 c3         1 WNK       0.223800
     24 C31         21.3140    15.6040    30.4990 c3         1 WNK      -0.101767
     25 C32         20.3290    15.2790    32.7930 c3         1 WNK      -0.101767
     26 C33         22.8030    15.6630    32.5470 c3         1 WNK      -0.101767
     27 N09         19.6030     7.5810    32.3910 nb         1 WNK      -0.762000
     28 N22         21.8090    13.5120    31.7620 na         1 WNK       0.122800
     29 N23         22.8930    13.0360    31.0330 nd         1 WNK      -0.519800
     30 N24         20.3520     6.7580    30.4800 nu         1 WNK      -0.963100
     31 N28         24.3220     4.8250    30.8030 n7         1 WNK      -0.889300
     32 O34         26.5530    10.9520    28.0600 oh         1 WNK      -0.536100
     33 S35         25.4160     4.4110    29.6160 sy         1 WNK       1.188600
     34 H131        25.8600     1.5570    30.1640 ha         1 WNK       0.134000
     35 H151        27.5810     5.3750    31.3160 ha         1 WNK       0.134000
     36 H211        20.1080    12.6170    32.8250 h4         1 WNK       0.157000
     37 H111        21.6500     9.1430    30.2070 ha         1 WNK       0.130000
     38 H161        29.2300     4.1920    32.7340 ha         1 WNK       0.128000
     39 H181        27.5210     0.3960    31.5940 ha         1 WNK       0.128000
     40 H011        26.8120     8.6290    29.2740 ha         1 WNK       0.137000
     41 H031        24.5330    12.2820    29.1010 ha         1 WNK       0.121000
     42 H051        23.5620     9.2400    32.0220 ha         1 WNK       0.122000
     43 H061        25.3960     7.8320    31.1600 ha         1 WNK       0.111000
     44 H071        20.0340    10.5470    33.9570 ha         1 WNK       0.120000
     45 H081        18.8620     8.3660    34.1660 h4         1 WNK       0.012100
     46 H252        21.1100     7.3830    28.6100 h1         1 WNK       0.050200
     47 H251        20.8000     5.6460    28.7390 h1         1 WNK       0.050200
     48 H261        23.2280     6.2430    28.7150 hc         1 WNK       0.075200
     49 H262        23.0390     7.1260    30.2220 hc         1 WNK       0.075200
     50 H272        22.3040     5.0310    31.3690 h1         1 WNK       0.044200
     51 H271        22.5310     4.1150    29.8760 h1         1 WNK       0.044200
     52 H311        21.1100    16.6790    30.5760 hc         1 WNK       0.051256
     53 H313        22.1850    15.4740    29.8460 hc         1 WNK       0.051256
     54 H312        20.4540    15.1280    30.0130 hc         1 WNK       0.051256
     55 H322        20.4600    14.8610    33.7990 hc         1 WNK       0.051256
     56 H323        20.1710    16.3590    32.8990 hc         1 WNK       0.051256
     57 H321        19.4160    14.8520    32.3580 hc         1 WNK       0.051256
     58 H332        23.0150    15.2260    33.5300 hc         1 WNK       0.051256
     59 H331        23.6960    15.5400    31.9230 hc         1 WNK       0.051256
     60 H333        22.6350    16.7380    32.6820 hc         1 WNK       0.051256
     61 H241        19.7530     6.0080    30.8140 hn         1 WNK       0.498000
     62 H281        24.4330     4.0360    31.4370 hn         1 WNK       0.483000
     63 H291        29.9640     2.2260    33.4590 ho         1 WNK       0.471000
     64 H341        26.2440    11.8440    27.7930 ho         1 WNK       0.461000
     65 C30         21.5650    14.9840    31.9000 c3         1 WNK       0.119000
     66 O29         29.3840     1.5590    33.0330 oh         1 WNK      -0.528100
     67 O36         24.7440     3.4550    28.7340 o          1 WNK      -0.543500
     68 O37         26.0000     5.6680    29.1430 o          1 WNK      -0.543500
@<TRIPOS>BOND
     1     1     7 ar  
     2     1    27 ar  
     3     1    30 1   
     4     2     9 ar  
     5     2    11 ar  
     6     2    34 1   
     7     3     9 ar  
     8     3    10 ar  
     9     3    35 1   
    10     4    10 ar  
    11     4    11 ar  
    12     4    66 1   
    13     5     6 2   
    14     5     8 1   
    15     5    12 1   
    16     6    28 1   
    17     6    36 1   
    18     7     8 ar  
    19     7    37 1   
    20     8    19 ar  
    21     9    33 1   
    22    10    38 1   
    23    11    39 1   
    24    12    16 1   
    25    12    29 2   
    26    13    14 ar  
    27    13    18 ar  
    28    13    40 1   
    29    14    15 ar  
    30    14    32 1   
    31    15    16 ar  
    32    15    41 1   
    33    16    17 ar  
    34    17    18 ar  
    35    17    42 1   
    36    18    43 1   
    37    19    20 ar  
    38    19    44 1   
    39    20    27 ar  
    40    20    45 1   
    41    21    22 1   
    42    21    30 1   
    43    21    46 1   
    44    21    47 1   
    45    22    23 1   
    46    22    48 1   
    47    22    49 1   
    48    23    31 1   
    49    23    50 1   
    50    23    51 1   
    51    24    52 1   
    52    24    53 1   
    53    24    54 1   
    54    24    65 1   
    55    25    55 1   
    56    25    56 1   
    57    25    57 1   
    58    25    65 1   
    59    26    58 1   
    60    26    59 1   
    61    26    60 1   
    62    26    65 1   
    63    28    29 1   
    64    28    65 1   
    65    30    61 1   
    66    31    33 1   
    67    31    62 1   
    68    32    64 1   
    69    33    67 2   
    70    33    68 2   
    71    63    66 1   
@<TRIPOS>SUBSTRUCTURE
     1 WNK         1 TEMP              0 ****  ****    0 ROOT
