@<TRIPOS>MOLECULE
WNK
   68    71     1     0     0
SMALL
abcg2


@<TRIPOS>ATOM
      1 C10         21.2570     7.6040    32.1650 ca         1 WNK       0.619900
      2 C13         25.9650     2.6330    29.7720 ca         1 WNK       0.024000
      3 C15         27.4300     3.2710    31.5870 ca         1 WNK       0.024000
      4 C17         26.5790     1.0240    31.4510 ca         1 WNK       0.188100
      5 C20         21.5340    11.3520    31.9860 cc         1 WNK      -0.166000
      6 C21         20.7270    12.4690    32.1330 cd         1 WNK      -0.139000
      7 C11         21.5150     8.8960    31.6730 ca         1 WNK      -0.227000
      8 C12         21.2480    10.0000    32.4700 ca         1 WNK       0.090000
      9 C14         26.7390     3.5940    30.4200 ca         1 WNK      -0.360500
     10 C16         27.3540     1.9890    32.1020 ca         1 WNK      -0.194000
     11 C18         25.8860     1.3490    30.2850 ca         1 WNK      -0.194000
     12 C19         22.6320    11.8120    31.2090 cc         1 WNK       0.320500
     13 C01         26.1930     9.7630    30.0400 ca         1 WNK      -0.129000
     14 C02         25.5180    10.5730    29.1310 ca         1 WNK       0.126100
     15 C03         24.3510    11.2340    29.5090 ca         1 WNK      -0.178000
     16 C04         23.8490    11.0900    30.8030 ca         1 WNK      -0.082500
     17 C05         24.5280    10.2750    31.7140 ca         1 WNK      -0.130000
     18 C06         25.6910     9.6220    31.3270 ca         1 WNK      -0.081000
     19 C07         20.6960     9.7800    33.7420 ca         1 WNK      -0.230000
     20 C08         20.4660     8.4740    34.1370 ca         1 WNK       0.382900
     21 C25         22.0660     6.4630    30.0890 c3         1 WNK       0.242800
     22 C26         23.5610     6.7860    30.0100 c3         1 WNK      -0.116400
     23 C27         24.3960     5.8560    30.8780 c3         1 WNK       0.223800
     24 C31         20.5580    15.0970    29.8020 c3         1 WNK      -0.101767
     25 C32         19.5730    15.0950    32.1090 c3         1 WNK      -0.101767
     26 C33         21.9440    15.8330    31.7770 c3         1 WNK      -0.101767
     27 N09         20.7380     7.4000    33.3920 nb         1 WNK      -0.762000
     28 N22         21.3190    13.4880    31.4760 na         1 WNK       0.122800
     29 N23         22.4820    13.1040    30.9100 nd         1 WNK      -0.519800
     30 N24         21.5090     6.4870    31.4290 nu         1 WNK      -0.963100
     31 N28         25.8360     6.1530    30.7850 n7         1 WNK      -0.889300
     32 O34         26.0360    10.6840    27.8720 oh         1 WNK      -0.536100
     33 S35         26.7930     5.2530    29.8170 sy         1 WNK       1.188600
     34 H131        25.4310     2.8900    28.8680 ha         1 WNK       0.134000
     35 H151        28.0280     4.0190    32.0920 ha         1 WNK       0.134000
     36 H211        19.7800    12.5730    32.6310 h4         1 WNK       0.157000
     37 H111        21.9220     9.0340    30.6840 ha         1 WNK       0.130000
     38 H161        27.8910     1.7290    33.0050 ha         1 WNK       0.128000
     39 H181        25.2920     0.5910    29.7920 ha         1 WNK       0.128000
     40 H011        27.0890     9.2420    29.7280 ha         1 WNK       0.137000
     41 H031        23.8280    11.8550    28.7910 ha         1 WNK       0.121000
     42 H051        24.1470    10.1590    32.7190 ha         1 WNK       0.122000
     43 H061        26.2110     8.9880    32.0320 ha         1 WNK       0.111000
     44 H071        20.4790    10.6040    34.4070 ha         1 WNK       0.120000
     45 H081        20.0450     8.2740    35.1180 h4         1 WNK       0.012100
     46 H252        21.5140     7.1550    29.4460 h1         1 WNK       0.050200
     47 H251        21.8900     5.4600    29.6990 h1         1 WNK       0.050200
     48 H261        23.8750     6.6940    28.9690 hc         1 WNK       0.075200
     49 H262        23.7490     7.8160    30.3140 hc         1 WNK       0.075200
     50 H272        24.1190     5.9640    31.9250 h1         1 WNK       0.044200
     51 H271        24.2080     4.8130    30.6070 h1         1 WNK       0.044200
     52 H311        20.2170    16.1200    29.6380 hc         1 WNK       0.051256
     53 H313        21.4560    14.9300    29.2090 hc         1 WNK       0.051256
     54 H312        19.7790    14.4120    29.4620 hc         1 WNK       0.051256
     55 H322        19.7480    14.9220    33.1720 hc         1 WNK       0.051256
     56 H323        19.2530    16.1290    31.9810 hc         1 WNK       0.051256
     57 H321        18.7650    14.4470    31.7710 hc         1 WNK       0.051256
     58 H332        22.1590    15.6600    32.8320 hc         1 WNK       0.051256
     59 H331        22.8590    15.6930    31.2050 hc         1 WNK       0.051256
     60 H333        21.6090    16.8640    31.6540 hc         1 WNK       0.051256
     61 H241        21.2940     5.6120    31.8770 hn         1 WNK       0.498000
     62 H281        26.2920     6.3690    31.6620 hn         1 WNK       0.483000
     63 H291        26.9940    -0.3600    32.7180 ho         1 WNK       0.471000
     64 H341        25.4800    11.2680    27.3370 ho         1 WNK       0.461000
     65 C30         20.8450    14.8830    31.2910 c3         1 WNK       0.119000
     66 O29         26.4690    -0.2460    31.9130 oh         1 WNK      -0.528100
     67 O36         26.2010     5.2570    28.4980 o          1 WNK      -0.543500
     68 O37         28.1320     5.7670    29.9970 o          1 WNK      -0.543500
@<TRIPOS>BOND
     1     1     7 ar  
     2     1    27 ar  
     3     1    30 1   
     4     2     9 ar  
     5     2    11 ar  
     6     2    34 1   
     7     3     9 ar  
     8     3    10 ar  
     9     3    35 1   
    10     4    10 ar  
    11     4    11 ar  
    12     4    66 1   
    13     5     6 2   
    14     5     8 1   
    15     5    12 1   
    16     6    28 1   
    17     6    36 1   
    18     7     8 ar  
    19     7    37 1   
    20     8    19 ar  
    21     9    33 1   
    22    10    38 1   
    23    11    39 1   
    24    12    16 1   
    25    12    29 2   
    26    13    14 ar  
    27    13    18 ar  
    28    13    40 1   
    29    14    15 ar  
    30    14    32 1   
    31    15    16 ar  
    32    15    41 1   
    33    16    17 ar  
    34    17    18 ar  
    35    17    42 1   
    36    18    43 1   
    37    19    20 ar  
    38    19    44 1   
    39    20    27 ar  
    40    20    45 1   
    41    21    22 1   
    42    21    30 1   
    43    21    46 1   
    44    21    47 1   
    45    22    23 1   
    46    22    48 1   
    47    22    49 1   
    48    23    31 1   
    49    23    50 1   
    50    23    51 1   
    51    24    52 1   
    52    24    53 1   
    53    24    54 1   
    54    24    65 1   
    55    25    55 1   
    56    25    56 1   
    57    25    57 1   
    58    25    65 1   
    59    26    58 1   
    60    26    59 1   
    61    26    60 1   
    62    26    65 1   
    63    28    29 1   
    64    28    65 1   
    65    30    61 1   
    66    31    33 1   
    67    31    62 1   
    68    32    64 1   
    69    33    67 2   
    70    33    68 2   
    71    63    66 1   
@<TRIPOS>SUBSTRUCTURE
     1 WNK         1 TEMP              0 ****  ****    0 ROOT
