@<TRIPOS>MOLECULE
WNL
   35    36     1     0     0
SMALL
No Charge or Current Charge


@<TRIPOS>ATOM
      1 C01          4.5500     6.0710    18.0710 cc         1 WNL       0.135400
      2 C02          5.0760     7.1250    18.7660 cd         1 WNL      -0.233400
      3 C05          6.5100     5.8470    16.6470 cs         1 WNL       0.452400
      4 C07          4.3910     7.8400    19.9220 c3         1 WNL      -0.011200
      5 C13          3.1310     4.3720    19.1930 ca         1 WNL      -0.126000
      6 C15          0.7060     4.4940    19.0650 ca         1 WNL      -0.122000
      7 C16          0.7970     5.6550    18.2790 ca         1 WNL       0.141100
      8 C17          2.0690     6.1740    17.9500 ca         1 WNL      -0.167000
      9 C19         -0.3940     7.4390    17.0570 c3         1 WNL       0.146900
     10 C03          6.4350     7.5990    18.3820 c          1 WNL       0.561200
     11 N04          7.0790     6.9310    17.3010 n          1 WNL      -0.307400
     12 C31          8.4300     7.4110    16.9030 c3         1 WNL       0.073300
     13 N06          5.2740     5.4860    17.0750 ns         1 WNL      -0.447600
     14 C08          4.7570     7.2260    21.2860 c3         1 WNL      -0.087100
     15 O09          6.9830     8.5230    18.9700 o          1 WNL      -0.514000
     16 S11          7.2190     4.9710    15.4130 s          1 WNL      -0.598400
     17 C12          3.2370     5.5370    18.4120 ca         1 WNL      -0.056800
     18 C14          1.8690     3.8520    19.5220 ca         1 WNL      -0.074000
     19 H22          4.6490     8.9070    19.9320 hc         1 WNL       0.056700
     20 H21          3.3010     7.8140    19.8090 hc         1 WNL       0.056700
     21 H29          4.0300     3.8740    19.5510 ha         1 WNL       0.125000
     22 H31         -0.2720     4.0930    19.3200 ha         1 WNL       0.135000
     23 H32          2.1700     7.0690    17.3430 ha         1 WNL       0.128000
     24 H35         -1.4280     7.7360    16.8380 h1         1 WNL       0.046367
     25 H34          0.0930     8.2690    17.5830 h1         1 WNL       0.046367
     26 H33          0.1210     7.2750    16.1020 h1         1 WNL       0.046367
     27 H1           8.5860     7.2830    15.8250 h1         1 WNL       0.071700
     28 H2           8.5550     8.4790    17.1240 h1         1 WNL       0.071700
     29 H3           9.1970     6.8430    17.4450 h1         1 WNL       0.071700
     30 H5           4.8680     4.6940    16.5870 hn         1 WNL       0.482000
     31 H25          4.2470     7.7610    22.0960 hc         1 WNL       0.039367
     32 H24          4.4570     6.1720    21.3280 hc         1 WNL       0.039367
     33 H23          5.8380     7.2860    21.4610 hc         1 WNL       0.039367
     34 H30          1.7910     2.9520    20.1300 ha         1 WNL       0.125000
     35 O18         -0.3780     6.2440    17.8590 os         1 WNL      -0.345100
@<TRIPOS>BOND
     1     1     2 2   
     2     1    13 1   
     3     1    17 1   
     4     2     4 1   
     5     2    10 1   
     6     3    11 1   
     7     3    13 1   
     8     3    16 2   
     9     4    14 1   
    10     4    19 1   
    11     4    20 1   
    12     5    17 ar  
    13     5    18 ar  
    14     5    21 1   
    15     6     7 ar  
    16     6    18 ar  
    17     6    22 1   
    18     7     8 ar  
    19     7    35 1   
    20     8    17 ar  
    21     8    23 1   
    22     9    24 1   
    23     9    25 1   
    24     9    26 1   
    25     9    35 1   
    26    10    11 1   
    27    10    15 2   
    28    11    12 1   
    29    12    27 1   
    30    12    28 1   
    31    12    29 1   
    32    13    30 1   
    33    14    31 1   
    34    14    32 1   
    35    14    33 1   
    36    18    34 1   
@<TRIPOS>SUBSTRUCTURE
     1 WNL         1 TEMP              0 ****  ****    0 ROOT
