@<TRIPOS>MOLECULE
WNL
   35    36     1     0     0
SMALL
abcg2


@<TRIPOS>ATOM
      1 C01          4.5400     6.0580    18.0900 cc         1 WNL       0.135400
      2 C02          5.0220     7.1880    18.6660 cd         1 WNL      -0.233400
      3 C05          6.5820     5.6860    16.8220 cs         1 WNL       0.452400
      4 C07          4.3060     7.9720    19.7290 c3         1 WNL      -0.011200
      5 C13          3.1210     4.1700    18.8620 ca         1 WNL      -0.126000
      6 C15          0.7140     4.3280    18.8150 ca         1 WNL      -0.122000
      7 C16          0.8040     5.6200    18.2850 ca         1 WNL       0.141100
      8 C17          2.0530     6.1880    18.0500 ca         1 WNL      -0.167000
      9 C19         -0.3380     7.5690    17.4960 c3         1 WNL       0.146900
     10 C03          6.3590     7.6200    18.3090 c          1 WNL       0.561200
     11 N04          7.0740     6.8300    17.3790 n          1 WNL      -0.307400
     12 C31          8.4150     7.3170    17.0460 c3         1 WNL       0.073300
     13 N06          5.3240     5.3550    17.2070 ns         1 WNL      -0.447600
     14 C08          4.7770     7.5880    21.1380 c3         1 WNL      -0.087100
     15 O09          6.9000     8.6200    18.7670 o          1 WNL      -0.514000
     16 S11          7.3960     4.6960    15.7300 s          1 WNL      -0.598400
     17 C12          3.2090     5.4600    18.3460 ca         1 WNL      -0.056800
     18 C14          1.8650     3.6140    19.0980 ca         1 WNL      -0.074000
     19 H22          4.4880     9.0340    19.5600 hc         1 WNL       0.056700
     20 H21          3.2340     7.8120    19.6510 hc         1 WNL       0.056700
     21 H29          4.0200     3.6130    19.0920 ha         1 WNL       0.125000
     22 H31         -0.2660     3.9040    18.9940 ha         1 WNL       0.135000
     23 H32          2.1450     7.1790    17.6320 ha         1 WNL       0.128000
     24 H35         -1.3750     7.8700    17.3800 h1         1 WNL       0.046367
     25 H34          0.1700     8.2510    18.1820 h1         1 WNL       0.046367
     26 H33          0.1620     7.5870    16.5250 h1         1 WNL       0.046367
     27 H1           8.8440     6.6600    16.3010 h1         1 WNL       0.071700
     28 H2           8.3380     8.3320    16.6610 h1         1 WNL       0.071700
     29 H3           9.0290     7.3270    17.9440 h1         1 WNL       0.071700
     30 H5           4.9420     4.5260    16.7760 hn         1 WNL       0.482000
     31 H25          4.2670     8.1940    21.8890 hc         1 WNL       0.039367
     32 H24          4.5590     6.5370    21.3400 hc         1 WNL       0.039367
     33 H23          5.8510     7.7400    21.2480 hc         1 WNL       0.039367
     34 H30          1.7880     2.6160    19.5090 ha         1 WNL       0.125000
     35 O18         -0.3740     6.2430    18.0270 os         1 WNL      -0.345100
@<TRIPOS>BOND
     1     1     2 2   
     2     1    13 1   
     3     1    17 1   
     4     2     4 1   
     5     2    10 1   
     6     3    11 1   
     7     3    13 1   
     8     3    16 2   
     9     4    14 1   
    10     4    19 1   
    11     4    20 1   
    12     5    17 ar  
    13     5    18 ar  
    14     5    21 1   
    15     6     7 ar  
    16     6    18 ar  
    17     6    22 1   
    18     7     8 ar  
    19     7    35 1   
    20     8    17 ar  
    21     8    23 1   
    22     9    24 1   
    23     9    25 1   
    24     9    26 1   
    25     9    35 1   
    26    10    11 1   
    27    10    15 2   
    28    11    12 1   
    29    12    27 1   
    30    12    28 1   
    31    12    29 1   
    32    13    30 1   
    33    14    31 1   
    34    14    32 1   
    35    14    33 1   
    36    18    34 1   
@<TRIPOS>SUBSTRUCTURE
     1 WNL         1 TEMP              0 ****  ****    0 ROOT
