@<TRIPOS>MOLECULE
WNM
   29    30     1     0     0
SMALL
No Charge or Current Charge


@<TRIPOS>ATOM
      1 C10        -17.7120    31.3180   -15.1880 ca         1 WNM      -0.303500
      2 C13        -16.4220    30.5110   -17.5590 ca         1 WNM      -0.060000
      3 C15        -17.5730    32.2230   -16.2620 ca         1 WNM      -0.018500
      4 C02        -16.0320    33.3350   -10.8780 c5         1 WNM       0.154500
      5 C03        -15.0730    32.6810   -11.9000 c5         1 WNM      -0.094400
      6 C04        -15.9540    32.7330   -13.1660 c5         1 WNM       0.223800
      7 C06        -17.4250    32.7340   -11.3020 c5         1 WNM       0.213800
      8 C11        -17.1980    30.0090   -15.3050 ca         1 WNM      -0.018500
      9 C12        -16.5560    29.6090   -16.4900 ca         1 WNM      -0.132000
     10 C14        -16.9300    31.8160   -17.4440 ca         1 WNM      -0.132000
     11 N01        -15.6230    33.1030    -9.4760 n8         1 WNM      -0.985200
     12 N05        -17.1960    32.1350   -12.6430 n3         1 WNM      -0.736500
     13 O08        -19.2000    33.1140   -13.8680 o          1 WNM      -0.536000
     14 O09        -19.2000    30.6600   -13.0930 o          1 WNM      -0.536000
     15 S07        -18.5200    31.8310   -13.6580 sy         1 WNM       1.168600
     16 H1         -15.9240    30.1990   -18.4750 ha         1 WNM       0.116000
     17 H2         -17.9580    33.2390   -16.1860 ha         1 WNM       0.134500
     18 H3         -16.0430    34.4240   -11.0340 h1         1 WNM       0.030700
     19 H5         -14.1380    33.2380   -12.0210 hc         1 WNM       0.054200
     20 H6         -15.5110    32.1500   -13.9850 h1         1 WNM       0.062700
     21 H7         -16.1100    33.7620   -13.5190 h1         1 WNM       0.062700
     22 H8         -18.1830    33.5290   -11.3300 h1         1 WNM       0.057200
     23 H9         -17.7740    31.9700   -10.5940 h1         1 WNM       0.057200
     24 H10        -17.2900    29.3040   -14.4800 ha         1 WNM       0.134500
     25 H11        -16.1610    28.6000   -16.5780 ha         1 WNM       0.118000
     26 H12        -16.8250    32.5140   -18.2710 ha         1 WNM       0.118000
     27 H13        -14.6910    33.5090    -9.3270 hn         1 WNM       0.397500
     28 H14        -16.2230    33.6550    -8.8520 hn         1 WNM       0.397500
     29 H4         -14.8200    31.6490   -11.6310 hc         1 WNM       0.054200
@<TRIPOS>BOND
     1     1     3 ar  
     2     1     8 ar  
     3     1    15 1   
     4     2     9 ar  
     5     2    10 ar  
     6     2    16 1   
     7     3    10 ar  
     8     3    17 1   
     9     4     5 1   
    10     4     7 1   
    11     4    11 1   
    12     4    18 1   
    13     5     6 1   
    14     5    19 1   
    15     5    29 1   
    16     6    12 1   
    17     6    20 1   
    18     6    21 1   
    19     7    12 1   
    20     7    22 1   
    21     7    23 1   
    22     8     9 ar  
    23     8    24 1   
    24     9    25 1   
    25    10    26 1   
    26    11    27 1   
    27    11    28 1   
    28    12    15 1   
    29    13    15 2   
    30    14    15 2   
@<TRIPOS>SUBSTRUCTURE
     1 WNM         1 TEMP              0 ****  ****    0 ROOT
