@<TRIPOS>MOLECULE
WNM
   29    30     1     0     0
SMALL
bcc


@<TRIPOS>ATOM
      1 C10        -17.7090    31.3340   -14.9590 ca         1 WNM      -0.303500
      2 C13        -16.4440    31.5220   -17.4070 ca         1 WNM      -0.078000
      3 C15        -17.8410    32.4980   -15.7090 ca         1 WNM      -0.036500
      4 C02        -15.8380    33.4720   -11.5080 c5         1 WNM       0.154500
      5 C03        -15.0620    32.2440   -11.9720 c5         1 WNM      -0.094400
      6 C04        -16.1170    31.1450   -12.0170 c5         1 WNM       0.223800
      7 C06        -17.1340    33.3340   -12.2960 c5         1 WNM       0.213800
      8 C11        -16.9620    30.2590   -15.4260 ca         1 WNM      -0.036500
      9 C12        -16.3280    30.3610   -16.6550 ca         1 WNM      -0.150000
     10 C14        -17.2020    32.5870   -16.9360 ca         1 WNM      -0.150000
     11 N01        -16.1140    33.3690   -10.0850 n8         1 WNM      -0.874800
     12 N05        -17.3600    31.8820   -12.3090 n3         1 WNM      -0.736500
     13 O08        -19.6020    32.1390   -13.3420 o          1 WNM      -0.606800
     14 O09        -18.6110    29.8480   -13.0060 o          1 WNM      -0.606800
     15 S07        -18.4490    31.2520   -13.3490 sy         1 WNM       1.310200
     16 H1         -15.9480    31.5960   -18.3660 ha         1 WNM       0.134000
     17 H2         -18.4420    33.3250   -15.3540 ha         1 WNM       0.152500
     18 H3         -15.3290    34.4000   -11.7950 h1         1 WNM       0.030700
     19 H5         -14.6590    32.4230   -12.9700 hc         1 WNM       0.054200
     20 H6         -16.2140    30.6290   -11.0630 h1         1 WNM       0.062700
     21 H7         -15.8870    30.3990   -12.7790 h1         1 WNM       0.062700
     22 H8         -16.9910    33.7380   -13.3050 h1         1 WNM       0.057200
     23 H9         -17.9680    33.8580   -11.8310 h1         1 WNM       0.057200
     24 H10        -16.8820    29.3460   -14.8520 ha         1 WNM       0.152500
     25 H11        -15.7470    29.5280   -17.0270 ha         1 WNM       0.136000
     26 H12        -17.3010    33.4870   -17.5270 ha         1 WNM       0.136000
     27 H13        -15.2430    33.4160    -9.5700 hn         1 WNM       0.342300
     28 H14        -16.6560    34.1690    -9.7820 hn         1 WNM       0.342300
     29 H4         -14.2270    31.9920   -11.3170 hc         1 WNM       0.054200
@<TRIPOS>BOND
     1     1     3 ar  
     2     1     8 ar  
     3     1    15 1   
     4     2     9 ar  
     5     2    10 ar  
     6     2    16 1   
     7     3    10 ar  
     8     3    17 1   
     9     4     5 1   
    10     4     7 1   
    11     4    11 1   
    12     4    18 1   
    13     5     6 1   
    14     5    19 1   
    15     5    29 1   
    16     6    12 1   
    17     6    20 1   
    18     6    21 1   
    19     7    12 1   
    20     7    22 1   
    21     7    23 1   
    22     8     9 ar  
    23     8    24 1   
    24     9    25 1   
    25    10    26 1   
    26    11    27 1   
    27    11    28 1   
    28    12    15 1   
    29    13    15 2   
    30    14    15 2   
@<TRIPOS>SUBSTRUCTURE
     1 WNM         1 TEMP              0 ****  ****    0 ROOT
