@<TRIPOS>MOLECULE
WNN
   48    51     1     0     0
SMALL
No Charge or Current Charge


@<TRIPOS>ATOM
      1 C3           6.6550     3.6860    -1.1810 ca         1 WNN      -0.128000
      2 C2           5.4260     3.5180    -1.8360 ca         1 WNN      -0.075000
      3 C18         -0.8300    -3.1390    -2.3130 ca         1 WNN      -0.074000
      4 C4           7.0580     2.7630    -0.2030 ca         1 WNN      -0.041000
      5 C17          0.3000    -3.2910    -1.4920 ca         1 WNN      -0.129000
      6 C1           4.6030     2.4270    -1.5100 ca         1 WNN      -0.101000
      7 C19         -1.9340    -2.3950    -1.8630 ca         1 WNN      -0.185000
      8 C21         -0.7730    -1.9550     0.2310 ca         1 WNN      -0.127000
      9 C28         -9.1830     2.5040     1.0900 cc         1 WNN       0.425400
     10 C5           6.2270     1.6690     0.1210 ca         1 WNN      -0.196600
     11 C16          0.3350    -2.7020    -0.2140 ca         1 WNN      -0.085300
     12 C6           4.9910     1.4930    -0.5320 ca         1 WNN       0.181400
     13 C20         -1.9070    -1.7980    -0.5830 ca         1 WNN       0.142100
     14 C26         -7.6060     1.3520     0.2680 cd         1 WNN       0.628300
     15 C10          6.6320     0.6810     1.1500 c          1 WNN       0.578600
     16 C8           4.5300    -0.4330     0.6760 cc         1 WNN       0.450900
     17 C12          3.7230    -1.6430     1.1060 c          1 WNN       0.517800
     18 C15          1.5600    -2.8600     0.6720 c3         1 WNN       0.152300
     19 C23         -4.1640    -0.8350    -0.8420 c3         1 WNN       0.171600
     20 C24         -5.1010     0.0280     0.0200 c3         1 WNN       0.027600
     21 N27         -8.8660     1.8300    -0.0030 nd         1 WNN      -0.678000
     22 N30         -7.1080     1.6760     1.4500 nc         1 WNN      -0.544800
     23 N7           4.1090     0.4300    -0.2660 nd         1 WNN      -0.634100
     24 N29         -8.1320     2.4170     1.9700 na         1 WNN      -0.191700
     25 N9           5.7300    -0.3050     1.3440 ns         1 WNN      -0.406400
     26 N14          2.5170    -1.7820     0.4430 ns         1 WNN      -0.471900
     27 O11          7.6780     0.7340     1.7780 o          1 WNN      -0.525000
     28 O13          4.0730    -2.4540     1.9620 o          1 WNN      -0.603100
     29 O22         -2.9590    -1.0550    -0.0880 os         1 WNN      -0.344100
     30 S25         -6.6890     0.3670    -0.8720 ss         1 WNN      -0.290300
     31 H1           7.2950     4.5300    -1.4300 ha         1 WNN       0.121000
     32 H2           5.1100     4.2310    -2.5950 ha         1 WNN       0.119000
     33 H3          -0.8490    -3.5980    -3.2990 ha         1 WNN       0.117000
     34 H4           8.0130     2.9000     0.3010 ha         1 WNN       0.138000
     35 H5           1.1510    -3.8670    -1.8520 ha         1 WNN       0.120000
     36 H6           3.6520     2.3030    -2.0220 ha         1 WNN       0.132000
     37 H7          -2.7950    -2.2930    -2.5170 ha         1 WNN       0.121000
     38 H8          -0.7570    -1.4910     1.2140 ha         1 WNN       0.132000
     39 H10          1.2600    -2.8540     1.7280 h1         1 WNN       0.062700
     40 H11          2.0480    -3.8220     0.4650 h1         1 WNN       0.062700
     41 H12         -4.6570    -1.7870    -1.0750 h1         1 WNN       0.046700
     42 H13         -3.9450    -0.3090    -1.7810 h1         1 WNN       0.046700
     43 H14         -5.3200    -0.4950     0.9590 h1         1 WNN       0.088700
     44 H15         -4.6090     0.9800     0.2550 h1         1 WNN       0.088700
     45 H17          5.9700    -0.9990     2.0390 hn         1 WNN       0.358500
     46 H18          2.3010    -1.0720    -0.2510 hn         1 WNN       0.355500
     47 H16         -8.0970     2.8410     2.8940 hn         1 WNN       0.381000
     48 H9         -10.0990     3.0440     1.2980 h5         1 WNN       0.068100
@<TRIPOS>BOND
     1     1     2 ar  
     2     1     4 ar  
     3     1    31 1   
     4     2     6 ar  
     5     2    32 1   
     6     3     5 ar  
     7     3     7 ar  
     8     3    33 1   
     9     4    10 ar  
    10     4    34 1   
    11     5    11 ar  
    12     5    35 1   
    13     6    12 ar  
    14     6    36 1   
    15     7    13 ar  
    16     7    37 1   
    17     8    11 ar  
    18     8    13 ar  
    19     8    38 1   
    20     9    21 2   
    21     9    24 1   
    22     9    48 1   
    23    10    12 ar  
    24    10    15 1   
    25    11    18 1   
    26    12    23 1   
    27    13    29 1   
    28    14    21 1   
    29    14    22 2   
    30    14    30 1   
    31    15    25 1   
    32    15    27 2   
    33    16    17 1   
    34    16    23 2   
    35    16    25 1   
    36    17    26 1   
    37    17    28 2   
    38    18    26 1   
    39    18    39 1   
    40    18    40 1   
    41    19    20 1   
    42    19    29 1   
    43    19    41 1   
    44    19    42 1   
    45    20    30 1   
    46    20    43 1   
    47    20    44 1   
    48    22    24 1   
    49    24    47 1   
    50    25    45 1   
    51    26    46 1   
@<TRIPOS>SUBSTRUCTURE
     1 WNN         1 TEMP              0 ****  ****    0 ROOT
