@<TRIPOS>MOLECULE
WNN
   48    51     1     0     0
SMALL
abcg2


@<TRIPOS>ATOM
      1 C3           6.4100     3.6510    -1.1550 ca         1 WNN      -0.128000
      2 C2           5.1530     3.4780    -1.7440 ca         1 WNN      -0.075000
      3 C18         -0.8220    -3.0670    -2.2640 ca         1 WNN      -0.074000
      4 C4           6.8740     2.7330    -0.2380 ca         1 WNN      -0.041000
      5 C17          0.2950    -3.2530    -1.4680 ca         1 WNN      -0.129000
      6 C1           4.3680     2.3930    -1.4190 ca         1 WNN      -0.101000
      7 C19         -1.9040    -2.3170    -1.8180 ca         1 WNN      -0.185000
      8 C21         -0.7360    -1.9310     0.2540 ca         1 WNN      -0.127000
      9 C28         -8.9550     2.4550     0.9670 cc         1 WNN       0.425400
     10 C5           6.0890     1.6290     0.1020 ca         1 WNN      -0.196600
     11 C16          0.3370    -2.6830    -0.1980 ca         1 WNN      -0.085300
     12 C6           4.8280     1.4520    -0.4900 ca         1 WNN       0.181400
     13 C20         -1.8610    -1.7450    -0.5500 ca         1 WNN       0.142100
     14 C26         -7.3650     1.3350     0.2310 cd         1 WNN       0.628300
     15 C10          6.5670     0.6490     1.0740 c          1 WNN       0.578600
     16 C8           4.4720    -0.4670     0.6700 cc         1 WNN       0.450900
     17 C12          3.6500    -1.6730     1.0540 c          1 WNN       0.517800
     18 C15          1.5530    -2.8500     0.6700 c3         1 WNN       0.152300
     19 C23         -4.0210    -0.7850    -0.7830 c3         1 WNN       0.171600
     20 C24         -4.9420     0.0700     0.0670 c3         1 WNN       0.027600
     21 N27         -8.6000     1.7710    -0.0990 nd         1 WNN      -0.678000
     22 N30         -6.9450     1.7040     1.4180 nc         1 WNN      -0.544800
     23 N7           4.0260     0.3760    -0.1840 nd         1 WNN      -0.634100
     24 N29         -7.9820     2.4210     1.8700 na         1 WNN      -0.191700
     25 N9           5.6710    -0.3740     1.2920 ns         1 WNN      -0.406400
     26 N14          2.4830    -1.7610     0.4270 ns         1 WNN      -0.471900
     27 O11          7.6350     0.6920     1.6530 o          1 WNN      -0.525000
     28 O13          4.0750    -2.4670     1.8800 o          1 WNN      -0.603100
     29 O22         -2.8530    -1.0020    -0.0170 os         1 WNN      -0.344100
     30 S25         -6.4570     0.3590    -0.8910 ss         1 WNN      -0.290300
     31 H1           7.0170     4.5050    -1.4210 ha         1 WNN       0.121000
     32 H2           4.7920     4.2040    -2.4610 ha         1 WNN       0.119000
     33 H3          -0.8640    -3.5120    -3.2500 ha         1 WNN       0.117000
     34 H4           7.8460     2.8610     0.2200 ha         1 WNN       0.138000
     35 H5           1.1290    -3.8440    -1.8270 ha         1 WNN       0.120000
     36 H6           3.3950     2.2520    -1.8690 ha         1 WNN       0.132000
     37 H7          -2.7600    -2.1960    -2.4680 ha         1 WNN       0.121000
     38 H8          -0.7110    -1.4850     1.2420 ha         1 WNN       0.132000
     39 H10          1.2700    -2.8620     1.7250 h1         1 WNN       0.062700
     40 H11          2.0400    -3.8030     0.4540 h1         1 WNN       0.062700
     41 H12         -4.5040    -1.7370    -1.0320 h1         1 WNN       0.046700
     42 H13         -3.7800    -0.2740    -1.7210 h1         1 WNN       0.046700
     43 H14         -5.1940    -0.4410     0.9960 h1         1 WNN       0.088700
     44 H15         -4.4740     1.0250     0.3020 h1         1 WNN       0.088700
     45 H17          5.9210    -1.1040     1.9510 hn         1 WNN       0.358500
     46 H18          2.2460    -1.0380    -0.2370 hn         1 WNN       0.355500
     47 H16         -7.9550     2.8490     2.7830 hn         1 WNN       0.381000
     48 H9          -9.8880     2.9770     1.1160 h5         1 WNN       0.068100
@<TRIPOS>BOND
     1     1     2 ar  
     2     1     4 ar  
     3     1    31 1   
     4     2     6 ar  
     5     2    32 1   
     6     3     5 ar  
     7     3     7 ar  
     8     3    33 1   
     9     4    10 ar  
    10     4    34 1   
    11     5    11 ar  
    12     5    35 1   
    13     6    12 ar  
    14     6    36 1   
    15     7    13 ar  
    16     7    37 1   
    17     8    11 ar  
    18     8    13 ar  
    19     8    38 1   
    20     9    21 2   
    21     9    24 1   
    22     9    48 1   
    23    10    12 ar  
    24    10    15 1   
    25    11    18 1   
    26    12    23 1   
    27    13    29 1   
    28    14    21 1   
    29    14    22 2   
    30    14    30 1   
    31    15    25 1   
    32    15    27 2   
    33    16    17 1   
    34    16    23 2   
    35    16    25 1   
    36    17    26 1   
    37    17    28 2   
    38    18    26 1   
    39    18    39 1   
    40    18    40 1   
    41    19    20 1   
    42    19    29 1   
    43    19    41 1   
    44    19    42 1   
    45    20    30 1   
    46    20    43 1   
    47    20    44 1   
    48    22    24 1   
    49    24    47 1   
    50    25    45 1   
    51    26    46 1   
@<TRIPOS>SUBSTRUCTURE
     1 WNN         1 TEMP              0 ****  ****    0 ROOT
