@<TRIPOS>MOLECULE
WNO
   37    39     1     0     0
SMALL
abcg2


@<TRIPOS>ATOM
      1 C1         -23.6850   -30.8940    24.6140 c3         1 WNO      -0.089100
      2 C2         -24.7380   -29.8050    24.7190 c3         1 WNO       0.184800
      3 N1         -25.9750   -30.3000    25.2790 n3         1 WNO      -0.729600
      4 C3         -26.7160   -31.2360    24.4350 c5         1 WNO       0.174800
      5 C4         -28.1770   -30.8000    24.5750 c5         1 WNO       0.133800
      6 N2         -28.1520   -29.9920    25.7850 n7         1 WNO      -0.836400
      7 C5         -26.9010   -29.2700    25.7060 c5         1 WNO       0.371400
      8 C6         -26.5080   -28.6810    27.0430 ca         1 WNO       0.352300
      9 C7         -26.3110   -27.3140    27.1820 ca         1 WNO      -0.158000
     10 C8         -25.9540   -26.8180    28.4280 ca         1 WNO      -0.088000
     11 C9         -25.8040   -27.6960    29.4850 ca         1 WNO      -0.119000
     12 C10        -26.0220   -29.0550    29.2520 cp         1 WNO       0.290000
     13 C11        -25.8760   -30.0540    30.3400 cp         1 WNO       0.291000
     14 C12        -26.0930   -31.4110    30.1040 ca         1 WNO      -0.115000
     15 C13        -25.9410   -32.3020    31.1520 ca         1 WNO      -0.085000
     16 C14        -25.5810   -31.8190    32.4010 ca         1 WNO      -0.159000
     17 C15        -25.3900   -30.4520    32.5380 ca         1 WNO       0.333900
     18 N3         -25.5310   -29.5930    31.5400 nb         1 WNO      -0.679000
     19 N4         -26.3650   -29.5210    28.0580 nb         1 WNO      -0.623000
     20 H1         -22.7560   -30.4880    24.2140 hc         1 WNO       0.038033
     21 H2         -23.4730   -31.3250    25.5930 hc         1 WNO       0.038033
     22 H3         -24.0000   -31.7020    23.9520 hc         1 WNO       0.038033
     23 H4         -24.8940   -29.3460    23.7290 h1         1 WNO       0.026200
     24 H5         -24.3600   -29.0110    25.3690 h1         1 WNO       0.026200
     25 H7         -26.5620   -32.2660    24.7670 h1         1 WNO       0.044200
     26 H8         -26.4010   -31.1830    23.3870 h1         1 WNO       0.044200
     27 H9         -28.4830   -30.2290    23.6890 h1         1 WNO       0.038700
     28 H10        -28.8620   -31.6430    24.6760 h1         1 WNO       0.038700
     29 H11        -28.9370   -29.3560    25.8290 hn         1 WNO       0.420000
     30 H13        -26.9450   -28.4400    24.9700 h2         1 WNO      -0.000300
     31 H14        -26.4320   -26.6550    26.3320 ha         1 WNO       0.118000
     32 H15        -25.7910   -25.7580    28.5720 ha         1 WNO       0.119000
     33 H16        -25.5240   -27.3470    30.4680 ha         1 WNO       0.146000
     34 H17        -26.3720   -31.7520    29.1170 ha         1 WNO       0.157000
     35 H18        -26.1010   -33.3610    30.9950 ha         1 WNO       0.119000
     36 H19        -25.4520   -32.4780    33.2480 ha         1 WNO       0.122000
     37 H20        -25.1080   -30.0330    33.4980 h4         1 WNO       0.016100
@<TRIPOS>BOND
     1     1     2 1   
     2     1    20 1   
     3     1    21 1   
     4     1    22 1   
     5     2     3 1   
     6     2    23 1   
     7     2    24 1   
     8     3     4 1   
     9     3     7 1   
    10     4     5 1   
    11     4    25 1   
    12     4    26 1   
    13     5     6 1   
    14     5    27 1   
    15     5    28 1   
    16     6     7 1   
    17     6    29 1   
    18     7     8 1   
    19     7    30 1   
    20     8     9 ar  
    21     8    19 ar  
    22     9    10 ar  
    23     9    31 1   
    24    10    11 ar  
    25    10    32 1   
    26    11    12 ar  
    27    11    33 1   
    28    12    13 1   
    29    12    19 ar  
    30    13    14 ar  
    31    13    18 ar  
    32    14    15 ar  
    33    14    34 1   
    34    15    16 ar  
    35    15    35 1   
    36    16    17 ar  
    37    16    36 1   
    38    17    18 ar  
    39    17    37 1   
@<TRIPOS>SUBSTRUCTURE
     1 WNO         1 TEMP              0 ****  ****    0 ROOT
