@<TRIPOS>MOLECULE
WNO
   37    39     1     0     0
SMALL
No Charge or Current Charge


@<TRIPOS>ATOM
      1 C1         -23.6970   -30.5810    23.9170 c3         1 WNO      -0.089100
      2 C2         -24.7490   -29.5700    24.4130 c3         1 WNO       0.184800
      3 N1         -25.9320   -30.1940    25.0430 n3         1 WNO      -0.729600
      4 C3         -26.7450   -31.0930    24.1980 c5         1 WNO       0.174800
      5 C4         -27.9030   -31.3350    25.1830 c5         1 WNO       0.133800
      6 N2         -28.2030   -29.9630    25.6550 n7         1 WNO      -0.836400
      7 C5         -26.8930   -29.2460    25.6760 c5         1 WNO       0.371400
      8 C6         -26.4120   -28.7340    27.0760 ca         1 WNO       0.352300
      9 C7         -25.9770   -27.3960    27.1840 ca         1 WNO      -0.158000
     10 C8         -25.5330   -26.8980    28.4170 ca         1 WNO      -0.088000
     11 C9         -25.5350   -27.7630    29.5210 ca         1 WNO      -0.119000
     12 C10        -25.9790   -29.1040    29.3740 cp         1 WNO       0.290000
     13 C11        -25.9970   -30.0790    30.5460 cp         1 WNO       0.291000
     14 C12        -26.4390   -31.4230    30.3940 ca         1 WNO      -0.115000
     15 C13        -26.4430   -32.2970    31.4940 ca         1 WNO      -0.085000
     16 C14        -26.0020   -31.8050    32.7310 ca         1 WNO      -0.159000
     17 C15        -25.5770   -30.4700    32.8210 ca         1 WNO       0.333900
     18 N3         -25.5740   -29.6290    31.7610 nb         1 WNO      -0.679000
     19 N4         -26.4050   -29.5570    28.1650 nb         1 WNO      -0.623000
     20 H1         -22.8180   -30.0510    23.5320 hc         1 WNO       0.038033
     21 H2         -23.3730   -31.2330    24.7360 hc         1 WNO       0.038033
     22 H3         -24.0980   -31.2040    23.1090 hc         1 WNO       0.038033
     23 H4         -25.0620   -28.9450    23.5660 h1         1 WNO       0.026200
     24 H5         -24.2590   -28.9070    25.1390 h1         1 WNO       0.026200
     25 H7         -26.2250   -32.0230    23.9330 h1         1 WNO       0.044200
     26 H8         -27.0880   -30.6000    23.2770 h1         1 WNO       0.044200
     27 H9         -28.7720   -31.8090    24.7070 h1         1 WNO       0.038700
     28 H10        -27.5770   -31.9700    26.0190 h1         1 WNO       0.038700
     29 H11        -28.7590   -29.5060    24.9260 hn         1 WNO       0.420000
     30 H13        -26.9990   -28.3720    25.0210 h2         1 WNO      -0.000300
     31 H14        -25.9850   -26.7510    26.3090 ha         1 WNO       0.118000
     32 H15        -25.1940   -25.8690    28.5150 ha         1 WNO       0.119000
     33 H16        -25.1950   -27.3990    30.4860 ha         1 WNO       0.146000
     34 H17        -26.7760   -31.7830    29.4260 ha         1 WNO       0.157000
     35 H18        -26.7790   -33.3270    31.3890 ha         1 WNO       0.119000
     36 H19        -25.9860   -32.4420    33.6110 ha         1 WNO       0.122000
     37 H20        -25.2300   -30.0600    33.7680 h4         1 WNO       0.016100
@<TRIPOS>BOND
     1     1     2 1   
     2     1    20 1   
     3     1    21 1   
     4     1    22 1   
     5     2     3 1   
     6     2    23 1   
     7     2    24 1   
     8     3     4 1   
     9     3     7 1   
    10     4     5 1   
    11     4    25 1   
    12     4    26 1   
    13     5     6 1   
    14     5    27 1   
    15     5    28 1   
    16     6     7 1   
    17     6    29 1   
    18     7     8 1   
    19     7    30 1   
    20     8     9 ar  
    21     8    19 ar  
    22     9    10 ar  
    23     9    31 1   
    24    10    11 ar  
    25    10    32 1   
    26    11    12 ar  
    27    11    33 1   
    28    12    13 1   
    29    12    19 ar  
    30    13    14 ar  
    31    13    18 ar  
    32    14    15 ar  
    33    14    34 1   
    34    15    16 ar  
    35    15    35 1   
    36    16    17 ar  
    37    16    36 1   
    38    17    18 ar  
    39    17    37 1   
@<TRIPOS>SUBSTRUCTURE
     1 WNO         1 TEMP              0 ****  ****    0 ROOT
