@<TRIPOS>MOLECULE
WNP
   19    19     1     0     0
SMALL
abcg2


@<TRIPOS>ATOM
      1 C10        -34.9810    21.7580    -0.7930 ca         1 WNP      -0.077000
      2 C02        -29.2720    22.8750     0.2430 c3         1 WNP       0.222000
      3 C05        -30.7640    22.4930     0.2330 c          1 WNP       0.552100
      4 C08        -32.7280    22.4320    -1.2600 ca         1 WNP      -0.022000
      5 C09        -33.6860    21.9890    -0.3500 ca         1 WNP      -0.124000
      6 C11        -35.3480    21.9570    -2.1140 ca         1 WNP      -0.119000
      7 C12        -34.3790    22.3980    -3.0010 ca         1 WNP       0.146000
      8 C14        -33.0800    22.6370    -2.5940 ca         1 WNP      -0.153000
      9 F01        -28.5400    21.7930     0.4970 f          1 WNP      -0.100000
     10 F03        -28.8430    23.4000    -0.9050 f          1 WNP      -0.100000
     11 F04        -29.0460    23.7610     1.2090 f          1 WNP      -0.100000
     12 N07        -31.3920    22.7050    -0.9320 ns         1 WNP      -0.126000
     13 O06        -31.2300    22.0380     1.2530 o          1 WNP      -0.520100
     14 CL1        -34.7970    22.6600    -4.6600 cl         1 WNP      -0.193000
     15 H1         -35.7240    21.4170    -0.0840 ha         1 WNP       0.125000
     16 H2         -33.4470    21.8240     0.6870 ha         1 WNP       0.151000
     17 H3         -36.3610    21.7730    -2.4440 ha         1 WNP       0.135000
     18 H4         -32.3400    22.9770    -3.3090 ha         1 WNP       0.130000
     19 H5         -30.8470    23.0910    -1.6890 hn         1 WNP       0.174000
@<TRIPOS>BOND
     1     1     5 ar  
     2     1     6 ar  
     3     1    15 1   
     4     2     3 1   
     5     2     9 1   
     6     2    10 1   
     7     2    11 1   
     8     3    12 1   
     9     3    13 2   
    10     4     5 ar  
    11     4     8 ar  
    12     4    12 1   
    13     5    16 1   
    14     6     7 ar  
    15     6    17 1   
    16     7     8 ar  
    17     7    14 1   
    18     8    18 1   
    19    12    19 1   
@<TRIPOS>SUBSTRUCTURE
     1 WNP         1 TEMP              0 ****  ****    0 ROOT
