@<TRIPOS>MOLECULE
WNP
   19    19     1     0     0
SMALL
No Charge or Current Charge


@<TRIPOS>ATOM
      1 C10        -35.0740    21.8400    -0.7820 ca         1 WNP      -0.077000
      2 C02        -29.2150    22.9390     0.2570 c3         1 WNP       0.222000
      3 C05        -30.7290    22.6110     0.3500 c          1 WNP       0.552100
      4 C08        -32.7350    22.3880    -1.2540 ca         1 WNP      -0.022000
      5 C09        -33.7580    22.0600    -0.3350 ca         1 WNP      -0.124000
      6 C11        -35.3810    21.9430    -2.1490 ca         1 WNP      -0.119000
      7 C12        -34.3710    22.2670    -3.0660 ca         1 WNP       0.146000
      8 C14        -33.0570    22.4880    -2.6220 ca         1 WNP      -0.153000
      9 F01        -28.5650    22.0490    -0.5290 f          1 WNP      -0.100000
     10 F03        -29.0090    24.1700    -0.2690 f          1 WNP      -0.100000
     11 F04        -28.6120    22.9170     1.4710 f          1 WNP      -0.100000
     12 N07        -31.3810    22.6250    -0.8800 ns         1 WNP      -0.126000
     13 O06        -31.2880    22.3630     1.4160 o          1 WNP      -0.520100
     14 Cl1        -34.7500    22.3980    -4.7780 cl         1 WNP      -0.193000
     15 H1         -35.8560    21.5880    -0.0680 ha         1 WNP       0.125000
     16 H2         -33.5610    21.9710     0.7290 ha         1 WNP       0.151000
     17 H3         -36.3970    21.7730    -2.4960 ha         1 WNP       0.135000
     18 H4         -32.2880    22.7380    -3.3480 ha         1 WNP       0.130000
     19 H5         -30.7770    22.8480    -1.6610 hn         1 WNP       0.174000
@<TRIPOS>BOND
     1     1     5 ar  
     2     1     6 ar  
     3     1    15 1   
     4     2     3 1   
     5     2     9 1   
     6     2    10 1   
     7     2    11 1   
     8     3    12 1   
     9     3    13 2   
    10     4     5 ar  
    11     4     8 ar  
    12     4    12 1   
    13     5    16 1   
    14     6     7 ar  
    15     6    17 1   
    16     7     8 ar  
    17     7    14 1   
    18     8    18 1   
    19    12    19 1   
@<TRIPOS>SUBSTRUCTURE
     1 WNP         1 TEMP              0 ****  ****    0 ROOT
