@<TRIPOS>MOLECULE
WNQ
   36    37     1     0     0
SMALL
abcg2


@<TRIPOS>ATOM
      1 N1          16.4780     1.0220     8.3260 n3         1 WNQ      -0.735500
      2 C8          12.0100     1.3120     6.8810 ca         1 WNQ      -0.093500
      3 N2          10.1460    -1.7270     6.1290 nt         1 WNQ      -0.601000
      4 C9          13.3020     1.7910     7.0270 ca         1 WNQ      -0.025500
      5 O1          16.8790     0.9360     5.8740 o          1 WNQ      -0.540500
      6 C1          16.6510     1.3120    10.7370 c6         1 WNQ       0.162800
      7 C5          12.8590    -0.7130     5.8840 ca         1 WNQ      -0.093500
      8 C6          11.7790     0.0560     6.3200 ca         1 WNQ      -0.098600
      9 C4          14.1560    -0.2380     6.0140 ca         1 WNQ      -0.025500
     10 C3          14.3700     1.0120     6.5870 ca         1 WNQ      -0.294500
     11 C2          15.8260     1.6270     9.5010 c6         1 WNQ       0.196300
     12 O2          16.0060     3.0190     6.9240 o          1 WNQ      -0.540500
     13 S           16.0300     1.5790     6.8480 sy         1 WNQ       1.185600
     14 C10         16.6680    -0.4320     8.4730 c6         1 WNQ       0.196300
     15 C11         17.4710    -0.6990     9.7350 c6         1 WNQ       0.162800
     16 N           16.8110    -0.1270    10.9020 n3         1 WNQ      -0.721600
     17 C           17.5240    -0.4480    12.1290 c3         1 WNQ       0.152100
     18 O            9.4360     0.4180     6.1090 o          1 WNQ      -0.596100
     19 H1          11.1690     1.9090     7.2050 ha         1 WNQ       0.130000
     20 H2           9.2010    -2.0700     6.0510 hn         1 WNQ       0.318500
     21 H3          10.8800    -2.3960     6.2920 hn         1 WNQ       0.318500
     22 H4          13.4810     2.7630     7.4640 ha         1 WNQ       0.137500
     23 H5          17.6290     1.8170    10.6600 h1         1 WNQ       0.046200
     24 H6          16.1360     1.7140    11.6120 h1         1 WNQ       0.046200
     25 H7          12.7010    -1.6750     5.4160 ha         1 WNQ       0.130000
     26 H8          14.9910    -0.8270     5.6620 ha         1 WNQ       0.137500
     27 H9          15.7670     2.7020     9.3560 h1         1 WNQ       0.061200
     28 H10         14.8140     1.2250     9.6220 h1         1 WNQ       0.061200
     29 H11         15.6960    -0.9340     8.5380 h1         1 WNQ       0.061200
     30 H12         17.2040    -0.8070     7.6050 h1         1 WNQ       0.061200
     31 H13         17.5600    -1.7780     9.8700 h1         1 WNQ       0.046200
     32 H14         18.4880    -0.2890     9.6090 h1         1 WNQ       0.046200
     33 H16         16.9840    -0.0400    12.9850 h1         1 WNQ       0.035033
     34 H17         17.5900    -1.5310    12.2430 h1         1 WNQ       0.035033
     35 H18         18.5470    -0.0380    12.1390 h1         1 WNQ       0.035033
     36 C7          10.3540    -0.3990     6.1780 c          1 WNQ       0.605700
@<TRIPOS>BOND
     1     1    11 1   
     2     1    13 1   
     3     1    14 1   
     4     2     4 ar  
     5     2     8 ar  
     6     2    19 1   
     7     3    20 1   
     8     3    21 1   
     9     3    36 1   
    10     4    10 ar  
    11     4    22 1   
    12     5    13 2   
    13     6    11 1   
    14     6    16 1   
    15     6    23 1   
    16     6    24 1   
    17     7     8 ar  
    18     7     9 ar  
    19     7    25 1   
    20     8    36 1   
    21     9    10 ar  
    22     9    26 1   
    23    10    13 1   
    24    11    27 1   
    25    11    28 1   
    26    12    13 2   
    27    14    15 1   
    28    14    29 1   
    29    14    30 1   
    30    15    16 1   
    31    15    31 1   
    32    15    32 1   
    33    16    17 1   
    34    17    33 1   
    35    17    34 1   
    36    17    35 1   
    37    18    36 2   
@<TRIPOS>SUBSTRUCTURE
     1 WNQ         1 TEMP              0 ****  ****    0 ROOT
