@<TRIPOS>MOLECULE
WNQ
   36    37     1     0     0
SMALL
No Charge or Current Charge


@<TRIPOS>ATOM
      1 N1          16.6760     1.1450     8.1890 n3         1 WNQ      -0.735500
      2 C8          12.0440     1.2900     7.0240 ca         1 WNQ      -0.093500
      3 N2          10.1160    -1.7490     5.9920 nt         1 WNQ      -0.601000
      4 C9          13.3550     1.7930     7.0680 ca         1 WNQ      -0.025500
      5 O1          16.9470     0.9490     5.6740 o          1 WNQ      -0.540500
      6 C1          16.6040     1.3540    10.7140 c6         1 WNQ       0.162800
      7 C5          12.8620    -0.7780     6.0440 ca         1 WNQ      -0.093500
      8 C6          11.7750    -0.0010     6.5150 ca         1 WNQ      -0.098600
      9 C4          14.1750    -0.2770     6.0870 ca         1 WNQ      -0.025500
     10 C3          14.4290     1.0080     6.6040 ca         1 WNQ      -0.294500
     11 C2          15.9500     1.7400     9.3510 c6         1 WNQ       0.196300
     12 O2          16.0880     3.1170     6.7050 o          1 WNQ      -0.540500
     13 S           16.1170     1.6500     6.6600 sy         1 WNQ       1.185600
     14 C10         16.7820    -0.3340     8.3610 c6         1 WNQ       0.196300
     15 C11         17.4370    -0.7240     9.7230 c6         1 WNQ       0.162800
     16 N           16.7170    -0.1260    10.8890 n3         1 WNQ      -0.721600
     17 C           17.3130    -0.5070    12.1880 c3         1 WNQ       0.152100
     18 O            9.4020     0.1480     6.8840 o          1 WNQ      -0.596100
     19 H1          11.2310     1.9130     7.3910 ha         1 WNQ       0.130000
     20 H2           9.1690    -2.0970     5.9670 hn         1 WNQ       0.318500
     21 H3          10.8780    -2.3160     5.6540 hn         1 WNQ       0.318500
     22 H4          13.5290     2.7920     7.4650 ha         1 WNQ       0.137500
     23 H5          17.6000     1.8190    10.7660 h1         1 WNQ       0.046200
     24 H6          16.0040     1.7890    11.5260 h1         1 WNQ       0.046200
     25 H7          12.7070    -1.7750     5.6410 ha         1 WNQ       0.130000
     26 H8          14.9920    -0.8960     5.7170 ha         1 WNQ       0.137500
     27 H9          15.9340     2.8370     9.2810 h1         1 WNQ       0.061200
     28 H10         14.9030     1.4030     9.3650 h1         1 WNQ       0.061200
     29 H11         15.7870    -0.8000     8.3140 h1         1 WNQ       0.061200
     30 H12         17.3850    -0.7790     7.5560 h1         1 WNQ       0.061200
     31 H13         17.4510    -1.8200     9.8050 h1         1 WNQ       0.046200
     32 H14         18.4850    -0.3890     9.7130 h1         1 WNQ       0.046200
     33 H16         16.7280    -0.0910    13.0190 h1         1 WNQ       0.035033
     34 H17         17.3320    -1.5990    12.3000 h1         1 WNQ       0.035033
     35 H18         18.3430    -0.1340    12.2720 h1         1 WNQ       0.035033
     36 C7          10.3480    -0.5110     6.4840 c          1 WNQ       0.605700
@<TRIPOS>BOND
     1     1    11 1   
     2     1    13 1   
     3     1    14 1   
     4     2     4 ar  
     5     2     8 ar  
     6     2    19 1   
     7     3    20 1   
     8     3    21 1   
     9     3    36 1   
    10     4    10 ar  
    11     4    22 1   
    12     5    13 2   
    13     6    11 1   
    14     6    16 1   
    15     6    23 1   
    16     6    24 1   
    17     7     8 ar  
    18     7     9 ar  
    19     7    25 1   
    20     8    36 1   
    21     9    10 ar  
    22     9    26 1   
    23    10    13 1   
    24    11    27 1   
    25    11    28 1   
    26    12    13 2   
    27    14    15 1   
    28    14    29 1   
    29    14    30 1   
    30    15    16 1   
    31    15    31 1   
    32    15    32 1   
    33    16    17 1   
    34    17    33 1   
    35    17    34 1   
    36    17    35 1   
    37    18    36 2   
@<TRIPOS>SUBSTRUCTURE
     1 WNQ         1 TEMP              0 ****  ****    0 ROOT
