@<TRIPOS>MOLECULE
WNR
   38    40     1     0     0
SMALL
abcg2


@<TRIPOS>ATOM
      1 C4           5.4920     7.4530    21.5210 ca         1 WNR       0.169100
      2 C5           6.3910     7.7080    22.5570 ca         1 WNR      -0.207000
      3 C6           6.0340     7.4350    23.8750 ca         1 WNR      -0.077000
      4 C8           7.4830     9.4730    17.7710 ca         1 WNR      -0.122000
      5 C10          6.8450     7.1670    17.5400 ca         1 WNR      -0.053000
      6 C13          7.5310     9.5910    16.3840 ca         1 WNR      -0.152000
      7 C17          7.0980     8.1170    19.8520 c3         1 WNR       0.220900
      8 C20          1.6640     5.0620    19.7190 ca         1 WNR      -0.111500
      9 C21          1.3510     5.9990    18.7400 ca         1 WNR      -0.104000
     10 C22          1.9820     7.2410    18.7530 ca         1 WNR      -0.111500
     11 C1           4.7860     6.9020    24.1670 ca         1 WNR      -0.166000
     12 C2           3.8960     6.6460    23.1290 ca         1 WNR      -0.074000
     13 C3           4.2180     6.9140    21.7990 cp         1 WNR      -0.065000
     14 O7           5.7800     7.6800    20.2120 os         1 WNR      -0.333100
     15 C9           7.1420     8.2560    18.3570 ca         1 WNR      -0.140300
     16 C11          6.8760     7.2720    16.1520 ca         1 WNR      -0.133600
     17 C12          7.2260     8.4990    15.5820 ca         1 WNR      -0.075000
     18 C14          6.5320     6.0690    15.2730 c          1 WNR       0.705600
     19 O15          6.2270     5.0010    15.8620 o          1 WNR      -0.720000
     20 O16          6.5790     6.2400    14.0270 o          1 WNR      -0.720000
     21 C18          3.2440     6.6070    20.7240 cp         1 WNR      -0.024000
     22 C19          2.6000     5.3650    20.7020 ca         1 WNR      -0.087000
     23 C23          2.9200     7.5410    19.7330 ca         1 WNR      -0.087000
     24 H1           7.3680     8.1140    22.3460 ha         1 WNR       0.116000
     25 H2           6.7410     7.6430    24.6680 ha         1 WNR       0.101000
     26 H5           7.7980    10.5390    15.9330 ha         1 WNR       0.087000
     27 H6           7.3210     9.0720    20.3310 h1         1 WNR       0.028700
     28 H7           7.8250     7.3760    20.2010 h1         1 WNR       0.028700
     29 H8           1.1840     4.0910    19.7160 ha         1 WNR       0.107500
     30 H9           0.6250     5.7640    17.9720 ha         1 WNR       0.106000
     31 H10          1.7410     7.9790    17.9980 ha         1 WNR       0.107500
     32 H11          4.5020     6.6920    25.1900 ha         1 WNR       0.104000
     33 H12          2.9180     6.2380    23.3500 ha         1 WNR       0.109000
     34 H13          7.2550     8.5840    14.5040 ha         1 WNR       0.129000
     35 H15          2.8470     4.6260    21.4540 ha         1 WNR       0.112500
     36 H16          3.4030     8.5080    19.7340 ha         1 WNR       0.112500
     37 H3           7.7080    10.3270    18.3980 ha         1 WNR       0.081000
     38 H4           6.5760     6.2160    17.9800 ha         1 WNR       0.138000
@<TRIPOS>BOND
     1     1     2 ar  
     2     1    13 ar  
     3     1    14 1   
     4     2     3 ar  
     5     2    24 1   
     6     3    11 ar  
     7     3    25 1   
     8     4     6 ar  
     9     4    15 ar  
    10     4    37 1   
    11     5    15 ar  
    12     5    16 ar  
    13     5    38 1   
    14     6    17 ar  
    15     6    26 1   
    16     7    14 1   
    17     7    15 1   
    18     7    27 1   
    19     7    28 1   
    20     8     9 ar  
    21     8    22 ar  
    22     8    29 1   
    23     9    10 ar  
    24     9    30 1   
    25    10    23 ar  
    26    10    31 1   
    27    11    12 ar  
    28    11    32 1   
    29    12    13 ar  
    30    12    33 1   
    31    13    21 1   
    32    16    17 ar  
    33    16    18 1   
    34    17    34 1   
    35    18    19 1   
    36    18    20 1   
    37    21    22 ar  
    38    21    23 ar  
    39    22    35 1   
    40    23    36 1   
@<TRIPOS>SUBSTRUCTURE
     1 WNR         1 TEMP              0 ****  ****    0 ROOT
