@<TRIPOS>MOLECULE
WNR
   38    40     1     0     0
SMALL
No Charge or Current Charge


@<TRIPOS>ATOM
      1 C4           5.5210     7.3320    21.5510 ca         1 WNR       0.169100
      2 C5           6.4790     7.4990    22.5770 ca         1 WNR      -0.207000
      3 C6           6.1310     7.2420    23.9130 ca         1 WNR      -0.077000
      4 C8           6.8390     9.4080    17.6940 ca         1 WNR      -0.122000
      5 C10          7.3230     7.0350    17.4510 ca         1 WNR      -0.053000
      6 C13          6.8130     9.5420    16.2980 ca         1 WNR      -0.152000
      7 C17          7.1220     8.0020    19.7930 c3         1 WNR       0.220900
      8 C20          1.3410     5.3740    19.8170 ca         1 WNR      -0.111500
      9 C21          1.1280     6.3570    18.8370 ca         1 WNR      -0.104000
     10 C22          1.9100     7.5230    18.8350 ca         1 WNR      -0.111500
     11 C1           4.8340     6.8150    24.2290 ca         1 WNR      -0.166000
     12 C2           3.8790     6.6470    23.2130 ca         1 WNR      -0.074000
     13 C3           4.1970     6.9060    21.8560 cp         1 WNR      -0.065000
     14 O7           5.8320     7.5420    20.2210 os         1 WNR      -0.333100
     15 C9           7.0960     8.1540    18.2780 ca         1 WNR      -0.140300
     16 C11          7.3010     7.1550    16.0410 ca         1 WNR      -0.133600
     17 C12          7.0420     8.4260    15.4750 ca         1 WNR      -0.075000
     18 C14          7.5480     5.9450    15.1550 c          1 WNR       0.705600
     19 O15          7.7940     4.8710    15.6860 o          1 WNR      -0.720000
     20 O16          7.4950     6.0860    13.9410 o          1 WNR      -0.720000
     21 C18          3.1460     6.7200    20.8030 cp         1 WNR      -0.024000
     22 C19          2.3380     5.5560    20.7910 ca         1 WNR      -0.087000
     23 C23          2.9070     7.7030    19.8100 ca         1 WNR      -0.087000
     24 H1           7.4930     7.8200    22.3590 ha         1 WNR       0.116000
     25 H2           6.8690     7.3710    24.7030 ha         1 WNR       0.101000
     26 H5           6.6140    10.5130    15.8510 ha         1 WNR       0.087000
     27 H6           7.3610     8.9680    20.2560 h1         1 WNR       0.028700
     28 H7           7.9020     7.2830    20.0750 h1         1 WNR       0.028700
     29 H8           0.7340     4.4710    19.8220 ha         1 WNR       0.107500
     30 H9           0.3560     6.2170    18.0830 ha         1 WNR       0.106000
     31 H10          1.7440     8.2890    18.0800 ha         1 WNR       0.107500
     32 H11          4.5650     6.6150    25.2640 ha         1 WNR       0.104000
     33 H12          2.8750     6.3240    23.4790 ha         1 WNR       0.109000
     34 H13          7.0180     8.5530    14.3950 ha         1 WNR       0.129000
     35 H15          2.4940     4.7830    21.5400 ha         1 WNR       0.112500
     36 H16          3.4950     8.6180    19.8020 ha         1 WNR       0.112500
     37 H3           6.6580    10.2770    18.3220 ha         1 WNR       0.081000
     38 H4           7.5150     6.0680    17.9110 ha         1 WNR       0.138000
@<TRIPOS>BOND
     1     1     2 ar  
     2     1    13 ar  
     3     1    14 1   
     4     2     3 ar  
     5     2    24 1   
     6     3    11 ar  
     7     3    25 1   
     8     4     6 ar  
     9     4    15 ar  
    10     4    37 1   
    11     5    15 ar  
    12     5    16 ar  
    13     5    38 1   
    14     6    17 ar  
    15     6    26 1   
    16     7    14 1   
    17     7    15 1   
    18     7    27 1   
    19     7    28 1   
    20     8     9 ar  
    21     8    22 ar  
    22     8    29 1   
    23     9    10 ar  
    24     9    30 1   
    25    10    23 ar  
    26    10    31 1   
    27    11    12 ar  
    28    11    32 1   
    29    12    13 ar  
    30    12    33 1   
    31    13    21 1   
    32    16    17 ar  
    33    16    18 1   
    34    17    34 1   
    35    18    19 1   
    36    18    20 1   
    37    21    22 ar  
    38    21    23 ar  
    39    22    35 1   
    40    23    36 1   
@<TRIPOS>SUBSTRUCTURE
     1 WNR         1 TEMP              0 ****  ****    0 ROOT
