@<TRIPOS>MOLECULE
WNS
   24    24     1     0     0
SMALL
No Charge or Current Charge


@<TRIPOS>ATOM
      1 C10        -35.9670    21.3400    -1.6160 ca         1 WNS       0.327900
      2 C01        -27.3420    22.9920    -0.4370 c3         1 WNS      -0.091100
      3 C02        -28.7310    22.3970    -0.1340 c3         1 WNS      -0.071400
      4 C03        -29.8580    23.4590    -0.1450 c3         1 WNS      -0.160400
      5 C04        -31.2290    22.8380     0.1580 c          1 WNS       0.609100
      6 C07        -33.4000    22.2490    -1.1000 ca         1 WNS      -0.060000
      7 C08        -34.1420    21.6670    -0.0480 ca         1 WNS      -0.082000
      8 C09        -35.4440    21.2090    -0.3190 ca         1 WNS      -0.140000
      9 C12        -34.0200    22.3320    -2.3720 ca         1 WNS       0.403000
     10 N06        -32.0700    22.7460    -0.9430 ns         1 WNS      -0.151000
     11 N11        -35.2710    21.8930    -2.6340 nb         1 WNS      -0.643000
     12 O05        -31.5360    22.4890     1.2910 o          1 WNS      -0.574100
     13 Cl1        -33.1740    23.0390    -3.7460 cl         1 WNS      -0.182000
     14 H1         -36.9730    20.9920    -1.8460 h4         1 WNS       0.029100
     15 H2         -26.5770    22.2060    -0.4180 hc         1 WNS       0.036367
     16 H3         -27.3270    23.4600    -1.4290 hc         1 WNS       0.036367
     17 H4         -27.0730    23.7500     0.3080 hc         1 WNS       0.036367
     18 H5         -28.9550    21.6190    -0.8750 hc         1 WNS       0.050200
     19 H6         -28.7010    21.9040     0.8460 hc         1 WNS       0.050200
     20 H7         -29.6370    24.2070     0.6260 hc         1 WNS       0.066200
     21 H8         -29.8730    23.9390    -1.1310 hc         1 WNS       0.066200
     22 H9         -33.7430    21.5590     0.9560 ha         1 WNS       0.147000
     23 H10        -36.0460    20.7550     0.4630 ha         1 WNS       0.131000
     24 H11        -31.6610    23.0950    -1.8010 hn         1 WNS       0.165000
@<TRIPOS>BOND
     1     1     8 ar  
     2     1    11 ar  
     3     1    14 1   
     4     2     3 1   
     5     2    15 1   
     6     2    16 1   
     7     2    17 1   
     8     3     4 1   
     9     3    18 1   
    10     3    19 1   
    11     4     5 1   
    12     4    20 1   
    13     4    21 1   
    14     5    10 1   
    15     5    12 2   
    16     6     7 ar  
    17     6     9 ar  
    18     6    10 1   
    19     7     8 ar  
    20     7    22 1   
    21     8    23 1   
    22     9    11 ar  
    23     9    13 1   
    24    10    24 1   
@<TRIPOS>SUBSTRUCTURE
     1 WNS         1 TEMP              0 ****  ****    0 ROOT
