@<TRIPOS>MOLECULE
WNS
   24    24     1     0     0
SMALL
abcg2


@<TRIPOS>ATOM
      1 C10        -35.8850    21.3800    -1.4540 ca         1 WNS       0.327900
      2 C01        -27.4650    22.8160    -0.2960 c3         1 WNS      -0.091100
      3 C02        -28.9030    22.3980    -0.0300 c3         1 WNS      -0.071400
      4 C03        -29.8860    23.5440    -0.2950 c3         1 WNS      -0.160400
      5 C04        -31.3030    23.1050    -0.0250 c          1 WNS       0.609100
      6 C07        -33.3010    22.2580    -1.1840 ca         1 WNS      -0.060000
      7 C08        -33.8600    21.4540    -0.1940 ca         1 WNS      -0.082000
      8 C09        -35.1680    21.0180    -0.3280 ca         1 WNS      -0.140000
      9 C12        -34.1290    22.5520    -2.2730 ca         1 WNS       0.403000
     10 N06        -31.9930    22.7300    -1.1420 ns         1 WNS      -0.151000
     11 N11        -35.3580    22.1330    -2.4140 nb         1 WNS      -0.643000
     12 O05        -31.7740    23.0470     1.0950 o          1 WNS      -0.574100
     13 CL1        -33.5030    23.5370    -3.5630 cl         1 WNS      -0.182000
     14 H1         -36.9080    21.0570    -1.5990 h4         1 WNS       0.029100
     15 H2         -26.7760    21.9970    -0.0910 hc         1 WNS       0.036367
     16 H3         -27.3260    23.1150    -1.3360 hc         1 WNS       0.036367
     17 H4         -27.1760    23.6590     0.3330 hc         1 WNS       0.036367
     18 H5         -29.1630    21.5430    -0.6610 hc         1 WNS       0.050200
     19 H6         -29.0060    22.0650     1.0050 hc         1 WNS       0.050200
     20 H7         -29.6570    24.3830     0.3640 hc         1 WNS       0.066200
     21 H8         -29.7670    23.8960    -1.3230 hc         1 WNS       0.066200
     22 H9         -33.2790    21.1570     0.6650 ha         1 WNS       0.147000
     23 H10        -35.6180    20.3930     0.4300 ha         1 WNS       0.131000
     24 H11        -31.5470    22.9000    -2.0310 hn         1 WNS       0.165000
@<TRIPOS>BOND
     1     1     8 ar  
     2     1    11 ar  
     3     1    14 1   
     4     2     3 1   
     5     2    15 1   
     6     2    16 1   
     7     2    17 1   
     8     3     4 1   
     9     3    18 1   
    10     3    19 1   
    11     4     5 1   
    12     4    20 1   
    13     4    21 1   
    14     5    10 1   
    15     5    12 2   
    16     6     7 ar  
    17     6     9 ar  
    18     6    10 1   
    19     7     8 ar  
    20     7    22 1   
    21     8    23 1   
    22     9    11 ar  
    23     9    13 1   
    24    10    24 1   
@<TRIPOS>SUBSTRUCTURE
     1 WNS         1 TEMP              0 ****  ****    0 ROOT
