@<TRIPOS>MOLECULE
WNU
   46    50     1     0     0
SMALL
No Charge or Current Charge


@<TRIPOS>ATOM
      1 C10         20.6520     5.0830    -2.5780 c          1 WNU       0.521500
      2 N12         21.8100     5.4950    -3.1590 ns         1 WNU      -0.459400
      3 C13         22.3160     4.9540    -4.2840 cc         1 WNU       0.757800
      4 C17         18.6970     2.4620    -3.9950 cc         1 WNU       0.466800
      5 C20         16.4790     0.8740    -6.6150 ca         1 WNU      -0.087000
      6 C21         16.0560     1.2630    -7.8980 ca         1 WNU      -0.101000
      7 C22         15.9570     2.6260    -8.2210 ca         1 WNU       0.122000
      8 C24         16.6880     3.2160    -5.9750 ca         1 WNU      -0.087000
      9 Cl1         15.4300     3.1120    -9.8270 cl         1 WNU      -0.195000
     10 P28         23.8140     1.0720    -9.0100 p5         1 WNU       1.364200
     11 C01         23.1790    -0.2510    -6.7910 c6         1 WNU       0.218600
     12 C02         21.7820     0.3860    -6.8970 c5         1 WNU       0.077300
     13 C03         21.8510     1.7900    -7.5030 c5         1 WNU       0.151300
     14 C04         20.3550     2.1980    -7.4080 c5         1 WNU       0.157300
     15 C05         20.0080     1.5580    -5.9940 c5         1 WNU       0.264300
     16 O06         21.1100     0.6600    -5.6590 os         1 WNU      -0.426000
     17 N07         19.7760     2.4840    -4.8780 na         1 WNU      -0.184500
     18 C08         20.6180     3.4980    -4.4620 cd         1 WNU       0.182400
     19 C09         20.0100     3.9760    -3.3280 cc         1 WNU       0.078500
     20 O11         20.2270     5.5980    -1.5530 o          1 WNU      -0.505000
     21 N14         21.8130     3.9770    -4.9950 nd         1 WNU      -0.733100
     22 N15         23.4460     5.4670    -4.7190 nv         1 WNU      -1.052200
     23 N16         18.8800     3.3550    -3.0330 nd         1 WNU      -0.530000
     24 S18         17.3640     1.3010    -4.0290 ss         1 WNU      -0.051300
     25 C19         16.8130     1.8470    -5.6540 ca         1 WNU      -0.144000
     26 C23         16.2660     3.6020    -7.2600 ca         1 WNU      -0.101000
     27 O26         19.6000     1.6080    -8.4810 oh         1 WNU      -0.688000
     28 O27         22.3030     1.6540    -8.8740 os         1 WNU      -0.531400
     29 O30         23.7750    -0.2760    -8.1140 os         1 WNU      -0.611400
     30 O31         24.6770     2.0380    -8.0900 oh         1 WNU      -0.775400
     31 H121        22.3190     6.2280    -2.6930 hn         1 WNU       0.328500
     32 H201        16.5570    -0.1840    -6.3720 ha         1 WNU       0.134500
     33 H211        15.8090     0.5110    -8.6430 ha         1 WNU       0.137000
     34 H241        16.9060     3.9860    -5.2380 ha         1 WNU       0.134500
     35 H012        23.1000    -1.2790    -6.4090 h1         1 WNU       0.075200
     36 H011        23.8180     0.3250    -6.1060 h1         1 WNU       0.075200
     37 H021        21.1530    -0.2860    -7.4990 h1         1 WNU       0.093700
     38 H031        22.5030     2.4660    -6.9340 h1         1 WNU       0.101700
     39 H041        20.2370     3.2910    -7.4000 h1         1 WNU       0.078700
     40 H051        19.0980     0.9620    -6.1060 h2         1 WNU       0.098700
     41 H152        23.6840     5.1340    -5.6450 hn         1 WNU       0.514500
     42 H151        23.5740     6.4610    -4.5830 hn         1 WNU       0.514500
     43 H231        16.1750     4.6560    -7.5100 ha         1 WNU       0.137000
     44 H261        20.2240     1.5810    -9.2460 ho         1 WNU       0.516000
     45 H1          25.5370     1.8200    -8.4920 ho         1 WNU       0.487000
     46 O29         24.3480     0.9060   -10.3840 o          1 WNU      -0.526000
@<TRIPOS>BOND
     1     1     2 1   
     2     1    19 1   
     3     1    20 2   
     4     2     3 1   
     5     2    31 1   
     6     3    21 2   
     7     3    22 1   
     8     4    17 1   
     9     4    23 2   
    10     4    24 1   
    11     5     6 ar  
    12     5    25 ar  
    13     5    32 1   
    14     6     7 ar  
    15     6    33 1   
    16     7     9 1   
    17     7    26 ar  
    18     8    25 ar  
    19     8    26 ar  
    20     8    34 1   
    21    10    28 1   
    22    10    29 1   
    23    10    30 1   
    24    10    46 2   
    25    11    12 1   
    26    11    29 1   
    27    11    35 1   
    28    11    36 1   
    29    12    13 1   
    30    12    16 1   
    31    12    37 1   
    32    13    14 1   
    33    13    28 1   
    34    13    38 1   
    35    14    15 1   
    36    14    27 1   
    37    14    39 1   
    38    15    16 1   
    39    15    17 1   
    40    15    40 1   
    41    17    18 1   
    42    18    19 2   
    43    18    21 1   
    44    19    23 1   
    45    22    41 1   
    46    22    42 1   
    47    24    25 1   
    48    26    43 1   
    49    27    44 1   
    50    30    45 1   
@<TRIPOS>SUBSTRUCTURE
     1 WNU         1 TEMP              0 ****  ****    0 ROOT
