@<TRIPOS>MOLECULE
WNU
   46    50     1     0     0
SMALL
abcg2


@<TRIPOS>ATOM
      1 C10         20.7020     5.0370    -2.6830 c          1 WNU       0.521500
      2 N12         21.9560     5.3210    -3.2570 ns         1 WNU      -0.459400
      3 C13         22.5100     4.6820    -4.3350 cc         1 WNU       0.757800
      4 C17         18.7080     2.4730    -4.0990 cc         1 WNU       0.466800
      5 C20         16.0480     0.9200    -6.6190 ca         1 WNU      -0.087000
      6 C21         15.5110     1.2450    -7.8580 ca         1 WNU      -0.101000
      7 C22         15.6390     2.5440    -8.3320 ca         1 WNU       0.122000
      8 C24         16.7960     3.1980    -6.3370 ca         1 WNU      -0.087000
      9 CL1         14.9900     2.9530    -9.9030 cl         1 WNU      -0.195000
     10 P28         23.9360     1.2940    -8.8740 p5         1 WNU       1.364200
     11 C01         23.3750     0.0450    -6.5930 c6         1 WNU       0.218600
     12 C02         21.9350     0.4310    -6.8480 c5         1 WNU       0.077300
     13 C03         21.8580     1.8010    -7.5040 c5         1 WNU       0.151300
     14 C04         20.3800     2.1280    -7.3920 c5         1 WNU       0.157300
     15 C05         20.0680     1.4800    -5.9990 c5         1 WNU       0.264300
     16 O06         21.1710     0.6210    -5.6650 os         1 WNU      -0.426000
     17 N07         19.8480     2.4020    -4.9130 na         1 WNU      -0.184500
     18 C08         20.7050     3.3750    -4.4540 cd         1 WNU       0.182400
     19 C09         20.0560     3.9690    -3.3760 cc         1 WNU       0.078500
     20 O11         20.3070     5.6800    -1.7150 o          1 WNU      -0.505000
     21 N14         21.9060     3.6880    -4.9630 nd         1 WNU      -0.733100
     22 N15         23.7230     5.0840    -4.7420 nv         1 WNU      -1.052200
     23 N16         18.8160     3.4000    -3.1830 nd         1 WNU      -0.530000
     24 S18         17.3320     1.4070    -4.2630 ss         1 WNU      -0.051300
     25 C19         16.6900     1.8950    -5.8570 ca         1 WNU      -0.144000
     26 C23         16.2800     3.5240    -7.5840 ca         1 WNU      -0.101000
     27 O26         19.6660     1.4740    -8.4220 oh         1 WNU      -0.688000
     28 O27         22.4220     1.7840    -8.8250 os         1 WNU      -0.531400
     29 O30         24.0260     0.0410    -7.8980 os         1 WNU      -0.611400
     30 O31         24.6760     2.4930    -8.1370 oh         1 WNU      -0.775400
     31 H121        22.4710     6.0720    -2.8130 hn         1 WNU       0.328500
     32 H201        15.9750    -0.0970    -6.2560 ha         1 WNU       0.134500
     33 H211        15.0140     0.4920    -8.4530 ha         1 WNU       0.137000
     34 H241        17.2850     3.9640    -5.7490 ha         1 WNU       0.134500
     35 H012        23.4860    -0.9620    -6.2010 h1         1 WNU       0.075200
     36 H011        23.8710     0.7620    -5.9370 h1         1 WNU       0.075200
     37 H021        21.4710    -0.3220    -7.4950 h1         1 WNU       0.093700
     38 H031        22.3970     2.5170    -6.8860 h1         1 WNU       0.101700
     39 H041        20.1770     3.1980    -7.3810 h1         1 WNU       0.078700
     40 H051        19.1640     0.8820    -6.0960 h2         1 WNU       0.098700
     41 H152        24.1000     4.6790    -5.5830 hn         1 WNU       0.514500
     42 H151        24.1630     5.9070    -4.3670 hn         1 WNU       0.514500
     43 H231        16.3700     4.5320    -7.9650 ha         1 WNU       0.137000
     44 H261        18.7800     1.8540    -8.4780 ho         1 WNU       0.516000
     45 H1          25.6320     2.3690    -8.0300 ho         1 WNU       0.487000
     46 O29         24.4030     0.9720   -10.2240 o          1 WNU      -0.526000
@<TRIPOS>BOND
     1     1     2 1   
     2     1    19 1   
     3     1    20 2   
     4     2     3 1   
     5     2    31 1   
     6     3    21 2   
     7     3    22 1   
     8     4    17 1   
     9     4    23 2   
    10     4    24 1   
    11     5     6 ar  
    12     5    25 ar  
    13     5    32 1   
    14     6     7 ar  
    15     6    33 1   
    16     7     9 1   
    17     7    26 ar  
    18     8    25 ar  
    19     8    26 ar  
    20     8    34 1   
    21    10    28 1   
    22    10    29 1   
    23    10    30 1   
    24    10    46 2   
    25    11    12 1   
    26    11    29 1   
    27    11    35 1   
    28    11    36 1   
    29    12    13 1   
    30    12    16 1   
    31    12    37 1   
    32    13    14 1   
    33    13    28 1   
    34    13    38 1   
    35    14    15 1   
    36    14    27 1   
    37    14    39 1   
    38    15    16 1   
    39    15    17 1   
    40    15    40 1   
    41    17    18 1   
    42    18    19 2   
    43    18    21 1   
    44    19    23 1   
    45    22    41 1   
    46    22    42 1   
    47    24    25 1   
    48    26    43 1   
    49    27    44 1   
    50    30    45 1   
@<TRIPOS>SUBSTRUCTURE
     1 WNU         1 TEMP              0 ****  ****    0 ROOT
