@<TRIPOS>MOLECULE
WNV
   28    28     1     0     0
SMALL
bcc


@<TRIPOS>ATOM
      1 C10        -27.1100    -7.2790   -20.5280 ca         1 WNV      -0.080300
      2 C13        -29.0380    -6.5020   -21.9450 c3         1 WNV      -0.053800
      3 C01        -30.8180    -9.3950   -21.5660 c3         1 WNV       0.084800
      4 C03        -32.8950    -8.2780   -20.9730 c3         1 WNV       0.084800
      5 C04        -30.8420    -7.5950   -19.8690 c          1 WNV       0.683700
      6 C06        -29.3510    -7.7240   -19.7560 ca         1 WNV      -0.136600
      7 C07        -28.8450    -8.3390   -18.6140 ca         1 WNV      -0.096000
      8 C08        -27.4770    -8.4400   -18.4350 ca         1 WNV      -0.133000
      9 C09        -26.6200    -7.9130   -19.3910 ca         1 WNV      -0.115000
     10 C11        -26.1550    -6.7210   -21.5430 c3         1 WNV      -0.046800
     11 C12        -28.4970    -7.1720   -20.7140 ca         1 WNV      -0.045300
     12 N02        -31.4680    -8.3860   -20.7590 n          1 WNV      -0.473800
     13 O05        -31.4300    -6.7940   -19.1500 o          1 WNV      -0.596100
     14 H1         -28.9860    -7.1690   -22.8090 hc         1 WNV       0.046033
     15 H2         -30.0760    -6.1940   -21.8360 hc         1 WNV       0.046033
     16 H3         -28.4670    -5.6100   -22.2000 hc         1 WNV       0.046033
     17 H4         -29.7700    -9.5020   -21.3060 h1         1 WNV       0.042200
     18 H5         -31.3040   -10.3600   -21.4120 h1         1 WNV       0.042200
     19 H6         -30.8890    -9.1450   -22.6260 h1         1 WNV       0.042200
     20 H7         -33.3140    -7.4810   -20.3680 h1         1 WNV       0.042200
     21 H8         -33.1000    -8.0660   -22.0240 h1         1 WNV       0.042200
     22 H9         -33.3920    -9.2150   -20.7120 h1         1 WNV       0.042200
     23 H10        -29.5210    -8.7490   -17.8740 ha         1 WNV       0.141000
     24 H11        -27.0760    -8.9230   -17.5530 ha         1 WNV       0.135000
     25 H12        -25.5490    -7.9960   -19.2520 ha         1 WNV       0.130000
     26 H13        -26.2330    -5.6340   -21.6160 hc         1 WNV       0.042700
     27 H14        -25.1250    -6.9620   -21.2850 hc         1 WNV       0.042700
     28 H15        -26.3500    -7.1170   -22.5420 hc         1 WNV       0.042700
@<TRIPOS>BOND
     1     1     9 ar  
     2     1    10 1   
     3     1    11 ar  
     4     2    11 1   
     5     2    14 1   
     6     2    15 1   
     7     2    16 1   
     8     3    12 1   
     9     3    17 1   
    10     3    18 1   
    11     3    19 1   
    12     4    12 1   
    13     4    20 1   
    14     4    21 1   
    15     4    22 1   
    16     5     6 1   
    17     5    12 1   
    18     5    13 2   
    19     6     7 ar  
    20     6    11 ar  
    21     7     8 ar  
    22     7    23 1   
    23     8     9 ar  
    24     8    24 1   
    25     9    25 1   
    26    10    26 1   
    27    10    27 1   
    28    10    28 1   
@<TRIPOS>SUBSTRUCTURE
     1 WNV         1 TEMP              0 ****  ****    0 ROOT
