@<TRIPOS>MOLECULE
WNV
   28    28     1     0     0
SMALL
No Charge or Current Charge


@<TRIPOS>ATOM
      1 C10        -27.1080    -7.3010   -20.5420 ca         1 WNV      -0.080300
      2 C13        -29.1010    -6.4800   -21.9050 c3         1 WNV      -0.053800
      3 C01        -30.7830    -9.3780   -21.6640 c3         1 WNV       0.084800
      4 C03        -32.9480    -8.2410   -21.0560 c3         1 WNV       0.084800
      5 C04        -30.8680    -7.7280   -19.7550 c          1 WNV       0.616700
      6 C06        -29.3590    -7.7400   -19.6690 ca         1 WNV      -0.136600
      7 C07        -28.7820    -8.2930   -18.5080 ca         1 WNV      -0.078000
      8 C08        -27.3900    -8.3700   -18.3680 ca         1 WNV      -0.115000
      9 C09        -26.5580    -7.8860   -19.3850 ca         1 WNV      -0.097000
     10 C11        -26.1570    -6.7700   -21.6130 c3         1 WNV      -0.046800
     11 C12        -28.5180    -7.2060   -20.6860 ca         1 WNV      -0.045300
     12 N02        -31.4860    -8.3460   -20.8680 n          1 WNV      -0.406800
     13 O05        -31.5340    -7.1570   -18.8990 o          1 WNV      -0.596100
     14 H1         -29.0180    -7.0950   -22.8080 hc         1 WNV       0.046033
     15 H2         -30.1550    -6.2090   -21.7790 hc         1 WNV       0.046033
     16 H3         -28.5730    -5.5390   -22.0970 hc         1 WNV       0.046033
     17 H4         -29.9290    -9.7890   -21.1100 h1         1 WNV       0.042200
     18 H5         -31.4690   -10.2040   -21.8930 h1         1 WNV       0.042200
     19 H6         -30.4290    -8.9440   -22.6070 h1         1 WNV       0.042200
     20 H7         -33.2630    -7.1930   -20.9630 h1         1 WNV       0.042200
     21 H8         -33.2300    -8.6040   -22.0520 h1         1 WNV       0.042200
     22 H9         -33.4630    -8.8410   -20.2950 h1         1 WNV       0.042200
     23 H10        -29.4200    -8.6840   -17.7170 ha         1 WNV       0.123000
     24 H11        -26.9560    -8.8110   -17.4730 ha         1 WNV       0.117000
     25 H12        -25.4790    -7.9560   -19.2670 ha         1 WNV       0.112000
     26 H13        -26.1700    -5.6740   -21.6440 hc         1 WNV       0.042700
     27 H14        -25.1220    -7.0790   -21.4280 hc         1 WNV       0.042700
     28 H15        -26.4300    -7.1410   -22.6080 hc         1 WNV       0.042700
@<TRIPOS>BOND
     1     1     9 ar  
     2     1    10 1   
     3     1    11 ar  
     4     2    11 1   
     5     2    14 1   
     6     2    15 1   
     7     2    16 1   
     8     3    12 1   
     9     3    17 1   
    10     3    18 1   
    11     3    19 1   
    12     4    12 1   
    13     4    20 1   
    14     4    21 1   
    15     4    22 1   
    16     5     6 1   
    17     5    12 1   
    18     5    13 2   
    19     6     7 ar  
    20     6    11 ar  
    21     7     8 ar  
    22     7    23 1   
    23     8     9 ar  
    24     8    24 1   
    25     9    25 1   
    26    10    26 1   
    27    10    27 1   
    28    10    28 1   
@<TRIPOS>SUBSTRUCTURE
     1 WNV         1 TEMP              0 ****  ****    0 ROOT
