@<TRIPOS>MOLECULE
WNW
   48    51     1     0     0
SMALL
No Charge or Current Charge


@<TRIPOS>ATOM
      1 C01          6.2930     9.2330    19.5810 c5         1 WNW      -0.081700
      2 C02          5.3220     8.0390    19.9440 c5         1 WNW      -0.069700
      3 C04          6.8930     9.6240    20.9580 c5         1 WNW      -0.083400
      4 C05          6.0650     7.3170    21.1130 c5         1 WNW      -0.071700
      5 C06          4.0040     8.5960    20.5770 c5         1 WNW      -0.071400
      6 C07          8.2770     7.8560    20.0730 c5         1 WNW      -0.088400
      7 C10          5.1330     7.4880    22.3590 c5         1 WNW      -0.072400
      8 C11          3.7370     7.5530    21.6920 c5         1 WNW      -0.079400
      9 O14          6.7650     9.3620    16.3700 o          1 WNW      -0.611100
     10 C16          4.9910     5.3420    17.0460 ca         1 WNW      -0.324500
     11 C19          3.7090     5.8160    16.7010 ca         1 WNW      -0.007000
     12 C20          5.1870     4.6950    18.2850 ca         1 WNW      -0.007000
     13 C21          2.6350     5.6480    17.5910 ca         1 WNW      -0.127500
     14 C22          4.1060     4.5290    19.1680 ca         1 WNW      -0.127500
     15 C23          2.8260     5.0040    18.8270 ca         1 WNW      -0.013300
     16 C24          1.6520     4.8270    19.7770 c3         1 WNW      -0.059800
     17 C03          7.6100     8.6770    18.9160 c5         1 WNW       0.124700
     18 N08          7.2630     7.7090    17.8680 ns         1 WNW      -0.506900
     19 C09          7.3630     8.1840    21.3050 c5         1 WNW      -0.068700
     20 C12          6.8340     8.1800    16.6520 c          1 WNW       0.660100
     21 N13          6.4880     7.2440    15.7420 ns         1 WNW      -0.589300
     22 S15          6.3640     5.5850    15.9070 sy         1 WNW       1.202300
     23 O17          5.9630     5.1010    14.5820 o          1 WNW      -0.539000
     24 O18          7.5960     5.1280    16.5580 o          1 WNW      -0.539000
     25 H25          5.8240    10.0540    19.0240 hc         1 WNW       0.085700
     26 H26          5.0890     7.3700    19.1100 hc         1 WNW       0.054700
     27 H28          7.7210    10.3400    20.8840 hc         1 WNW       0.053700
     28 H29          6.1730    10.0470    21.6660 hc         1 WNW       0.053700
     29 H30          6.2660     6.2610    20.8970 hc         1 WNW       0.050700
     30 H32          4.0990     9.6060    20.9910 hc         1 WNW       0.043700
     31 H31          3.1880     8.6320    19.8470 hc         1 WNW       0.043700
     32 H34          8.3510     6.7790    19.8790 hc         1 WNW       0.055700
     33 H33          9.3010     8.2080    20.2440 hc         1 WNW       0.055700
     34 H38          5.2190     6.6430    23.0510 hc         1 WNW       0.043200
     35 H37          5.3360     8.3930    22.9430 hc         1 WNW       0.043200
     36 H39          2.9540     7.8750    22.3880 hc         1 WNW       0.040200
     37 H40          3.4390     6.5820    21.2830 hc         1 WNW       0.040200
     38 H42          3.5410     6.3180    15.7490 ha         1 WNW       0.130500
     39 H43          6.1680     4.3200    18.5730 ha         1 WNW       0.130500
     40 H44          1.6500     6.0180    17.3180 ha         1 WNW       0.121000
     41 H45          4.2680     4.0310    20.1210 ha         1 WNW       0.121000
     42 H48          0.8900     4.1720    19.3380 hc         1 WNW       0.052367
     43 H47          1.9630     4.3840    20.7300 hc         1 WNW       0.052367
     44 H46          1.1790     5.7910    19.9980 hc         1 WNW       0.052367
     45 H27          8.2690     9.4830    18.5610 h1         1 WNW       0.071700
     46 H35          7.3530     6.7080    17.9790 hn         1 WNW       0.339500
     47 H36          7.8560     8.0660    22.2770 hc         1 WNW       0.070700
     48 H41          6.1530     7.5500    14.8460 hn         1 WNW       0.347500
@<TRIPOS>BOND
     1     1     2 1   
     2     1     3 1   
     3     1    17 1   
     4     1    25 1   
     5     2     4 1   
     6     2     5 1   
     7     2    26 1   
     8     3    19 1   
     9     3    27 1   
    10     3    28 1   
    11     4     7 1   
    12     4    19 1   
    13     4    29 1   
    14     5     8 1   
    15     5    30 1   
    16     5    31 1   
    17     6    17 1   
    18     6    19 1   
    19     6    32 1   
    20     6    33 1   
    21     7     8 1   
    22     7    34 1   
    23     7    35 1   
    24     8    36 1   
    25     8    37 1   
    26     9    20 2   
    27    10    11 ar  
    28    10    12 ar  
    29    10    22 1   
    30    11    13 ar  
    31    11    38 1   
    32    12    14 ar  
    33    12    39 1   
    34    13    15 ar  
    35    13    40 1   
    36    14    15 ar  
    37    14    41 1   
    38    15    16 1   
    39    16    42 1   
    40    16    43 1   
    41    16    44 1   
    42    17    18 1   
    43    17    45 1   
    44    18    20 1   
    45    18    46 1   
    46    19    47 1   
    47    20    21 1   
    48    21    22 1   
    49    21    48 1   
    50    22    23 2   
    51    22    24 2   
@<TRIPOS>SUBSTRUCTURE
     1 WNW         1 TEMP              0 ****  ****    0 ROOT
