@<TRIPOS>MOLECULE
WNW
   48    51     1     0     0
SMALL
abcg2


@<TRIPOS>ATOM
      1 C01          6.1920     9.1630    19.5880 c5         1 WNW      -0.081700
      2 C02          5.3760     7.9330    20.0180 c5         1 WNW      -0.069700
      3 C04          6.7690     9.6660    20.9220 c5         1 WNW      -0.083400
      4 C05          6.2150     7.3530    21.2130 c5         1 WNW      -0.071700
      5 C06          3.9740     8.2210    20.5860 c5         1 WNW      -0.071400
      6 C07          8.3100     8.0660    20.0660 c5         1 WNW      -0.088400
      7 C10          5.2660     7.3540    22.4260 c5         1 WNW      -0.072400
      8 C11          3.8600     7.3140    21.8170 c5         1 WNW      -0.079400
      9 O14          6.4440     9.2360    16.3180 o          1 WNW      -0.611100
     10 C16          4.9860     5.3380    17.0780 ca         1 WNW      -0.324500
     11 C19          3.7920     5.9440    16.6880 ca         1 WNW      -0.007000
     12 C20          5.0840     4.6620    18.2870 ca         1 WNW      -0.007000
     13 C21          2.6970     5.8740    17.5290 ca         1 WNW      -0.127500
     14 C22          3.9690     4.5930    19.1130 ca         1 WNW      -0.127500
     15 C23          2.7670     5.2010    18.7550 ca         1 WNW      -0.013300
     16 C24          1.5720     5.1590    19.6630 c3         1 WNW      -0.059800
     17 C03          7.4960     8.6930    18.8970 c5         1 WNW       0.124700
     18 N08          7.3180     7.7470    17.8030 ns         1 WNW      -0.506900
     19 C09          7.4140     8.3160    21.2930 c5         1 WNW      -0.068700
     20 C12          6.7740     8.0990    16.6330 c          1 WNW       0.660100
     21 N13          6.5910     7.0570    15.6880 ns         1 WNW      -0.589300
     22 S15          6.3910     5.4430    16.0160 sy         1 WNW       1.202300
     23 O17          6.0920     4.8510    14.7370 o          1 WNW      -0.539000
     24 O18          7.5480     4.9980    16.7560 o          1 WNW      -0.539000
     25 H25          5.6320     9.8850    18.9970 hc         1 WNW       0.085700
     26 H26          5.3000     7.2180    19.2040 hc         1 WNW       0.054700
     27 H28          7.4990    10.4690    20.7980 hc         1 WNW       0.053700
     28 H29          6.0040     9.9950    21.6240 hc         1 WNW       0.053700
     29 H30          6.5510     6.3360    21.0030 hc         1 WNW       0.050700
     30 H32          3.8960     9.2680    20.8950 hc         1 WNW       0.043700
     31 H31          3.1890     8.0380    19.8510 hc         1 WNW       0.043700
     32 H34          8.4930     7.0010    19.9080 hc         1 WNW       0.055700
     33 H33          9.2770     8.5580    20.1660 hc         1 WNW       0.055700
     34 H38          5.4620     6.5230    23.1050 hc         1 WNW       0.043200
     35 H37          5.3920     8.2780    22.9970 hc         1 WNW       0.043200
     36 H39          3.0800     7.6310    22.5130 hc         1 WNW       0.040200
     37 H40          3.6270     6.2930    21.5030 hc         1 WNW       0.040200
     38 H42          3.7250     6.4730    15.7460 ha         1 WNW       0.130500
     39 H43          6.0190     4.2100    18.5850 ha         1 WNW       0.130500
     40 H44          1.7710     6.3540    17.2360 ha         1 WNW       0.121000
     41 H45          4.0430     4.0740    20.0600 ha         1 WNW       0.121000
     42 H48          0.7000     4.7620    19.1390 hc         1 WNW       0.052367
     43 H47          1.7620     4.5430    20.5400 hc         1 WNW       0.052367
     44 H46          1.3160     6.1670    20.0010 hc         1 WNW       0.052367
     45 H27          8.0140     9.5660    18.5000 h1         1 WNW       0.071700
     46 H35          7.6300     6.7960    17.9310 hn         1 WNW       0.339500
     47 H36          7.9490     8.2820    22.2420 hc         1 WNW       0.070700
     48 H41          6.1010     7.3620    14.8550 hn         1 WNW       0.347500
@<TRIPOS>BOND
     1     1     2 1   
     2     1     3 1   
     3     1    17 1   
     4     1    25 1   
     5     2     4 1   
     6     2     5 1   
     7     2    26 1   
     8     3    19 1   
     9     3    27 1   
    10     3    28 1   
    11     4     7 1   
    12     4    19 1   
    13     4    29 1   
    14     5     8 1   
    15     5    30 1   
    16     5    31 1   
    17     6    17 1   
    18     6    19 1   
    19     6    32 1   
    20     6    33 1   
    21     7     8 1   
    22     7    34 1   
    23     7    35 1   
    24     8    36 1   
    25     8    37 1   
    26     9    20 2   
    27    10    11 ar  
    28    10    12 ar  
    29    10    22 1   
    30    11    13 ar  
    31    11    38 1   
    32    12    14 ar  
    33    12    39 1   
    34    13    15 ar  
    35    13    40 1   
    36    14    15 ar  
    37    14    41 1   
    38    15    16 1   
    39    16    42 1   
    40    16    43 1   
    41    16    44 1   
    42    17    18 1   
    43    17    45 1   
    44    18    20 1   
    45    18    46 1   
    46    19    47 1   
    47    20    21 1   
    48    21    22 1   
    49    21    48 1   
    50    22    23 2   
    51    22    24 2   
@<TRIPOS>SUBSTRUCTURE
     1 WNW         1 TEMP              0 ****  ****    0 ROOT
