@<TRIPOS>MOLECULE
WNY
   31    32     1     0     0
SMALL
abcg2


@<TRIPOS>ATOM
      1 C10        -34.3000    22.0870    -0.3110 ca         1 WNY       0.348000
      2 C13        -34.4390    21.7420    -3.0970 ca         1 WNY       0.066000
      3 C15        -33.2270    21.6060    -2.4410 ca         1 WNY      -0.056500
      4 C01        -35.0050    21.8560     6.0830 c3         1 WNY      -0.176100
      5 C05        -33.1040    23.0960     3.0450 c6         1 WNY       0.090500
      6 C06        -32.9640    22.3550     1.7280 c6         1 WNY       0.218300
      7 C08        -35.4190    22.2040     1.8730 c6         1 WNY       0.218300
      8 C09        -35.0920    21.6420     3.2450 c6         1 WNY       0.090500
      9 C11        -35.5140    22.2270    -1.0070 ca         1 WNY      -0.186000
     10 C12        -35.5820    22.0520    -2.3770 ca         1 WNY      -0.056500
     11 C16        -33.1590    21.7700    -1.0690 ca         1 WNY      -0.186000
     12 N04        -34.0800    22.4450     3.9040 n          1 WNY      -0.419800
     13 N07        -34.2330    22.2550     1.0450 nh         1 WNY      -0.841400
     14 O03        -33.1760    23.3600     5.7460 o          1 WNY      -0.600100
     15 CL1        -34.5280    21.5280    -4.8190 cl         1 WNY      -0.211000
     16 H1         -32.3300    21.3550    -2.9900 ha         1 WNY       0.125000
     17 H2         -34.7780    22.0110     7.1350 hc         1 WNY       0.061033
     18 H3         -36.0250    22.1980     5.9020 hc         1 WNY       0.061033
     19 H4         -34.9800    20.7870     5.8720 hc         1 WNY       0.061033
     20 H5         -32.1290    23.1070     3.5250 h1         1 WNY       0.057700
     21 H6         -33.3880    24.1350     2.8530 h1         1 WNY       0.057700
     22 H7         -32.5080    21.3710     1.8990 h1         1 WNY       0.050700
     23 H8         -32.2610    22.9260     1.1180 h1         1 WNY       0.050700
     24 H9         -35.8900    23.1890     1.9780 h1         1 WNY       0.050700
     25 H10        -36.1600    21.5420     1.4230 h1         1 WNY       0.050700
     26 H11        -36.0110    21.6370     3.8270 h1         1 WNY       0.057700
     27 H12        -34.7690    20.6010     3.1430 h1         1 WNY       0.057700
     28 H13        -36.4210    22.5010    -0.4850 ha         1 WNY       0.114500
     29 H14        -36.5330    22.1680    -2.8800 ha         1 WNY       0.125000
     30 H15        -32.2000    21.6230    -0.5920 ha         1 WNY       0.114500
     31 C02        -34.0110    22.6190     5.2420 c          1 WNY       0.605100
@<TRIPOS>BOND
     1     1     9 ar  
     2     1    11 ar  
     3     1    13 1   
     4     2     3 ar  
     5     2    10 ar  
     6     2    15 1   
     7     3    11 ar  
     8     3    16 1   
     9     4    17 1   
    10     4    18 1   
    11     4    19 1   
    12     4    31 1   
    13     5     6 1   
    14     5    12 1   
    15     5    20 1   
    16     5    21 1   
    17     6    13 1   
    18     6    22 1   
    19     6    23 1   
    20     7     8 1   
    21     7    13 1   
    22     7    24 1   
    23     7    25 1   
    24     8    12 1   
    25     8    26 1   
    26     8    27 1   
    27     9    10 ar  
    28     9    28 1   
    29    10    29 1   
    30    11    30 1   
    31    12    31 1   
    32    14    31 2   
@<TRIPOS>SUBSTRUCTURE
     1 WNY         1 TEMP              0 ****  ****    0 ROOT
