@<TRIPOS>MOLECULE
WNY
   31    32     1     0     0
SMALL
No Charge or Current Charge


@<TRIPOS>ATOM
      1 C10        -34.3010    22.0280    -0.4110 ca         1 WNY       0.348000
      2 C13        -34.3920    21.6980    -3.2190 ca         1 WNY       0.066000
      3 C15        -33.2180    21.3930    -2.5130 ca         1 WNY      -0.056500
      4 C01        -34.8760    21.7220     6.2750 c3         1 WNY      -0.176100
      5 C05        -33.1990    23.2520     3.0690 c6         1 WNY       0.090500
      6 C06        -32.9780    22.5390     1.7020 c6         1 WNY       0.218300
      7 C08        -35.4780    22.1380     1.8470 c6         1 WNY       0.218300
      8 C09        -35.1900    21.7200     3.3200 c6         1 WNY       0.090500
      9 C11        -35.4740    22.3310    -1.1330 ca         1 WNY      -0.186000
     10 C12        -35.5210    22.1680    -2.5300 ca         1 WNY      -0.056500
     11 C16        -33.1740    21.5580    -1.1170 ca         1 WNY      -0.186000
     12 N04        -34.1110    22.5100     3.9900 n          1 WNY      -0.419800
     13 N07        -34.2500    22.1920     0.9950 nh         1 WNY      -0.841400
     14 O03        -33.0700    23.2450     5.8990 o          1 WNY      -0.600100
     15 Cl1        -34.4480    21.4930    -4.9650 cl         1 WNY      -0.211000
     16 H1         -32.3440    21.0260    -3.0470 ha         1 WNY       0.125000
     17 H2         -34.5950    21.7630     7.3330 hc         1 WNY       0.061033
     18 H3         -35.9060    22.0660     6.1330 hc         1 WNY       0.061033
     19 H4         -34.9090    20.6920     5.9040 hc         1 WNY       0.061033
     20 H5         -32.2180    23.3960     3.5420 h1         1 WNY       0.057700
     21 H6         -33.6210    24.2500     2.8860 h1         1 WNY       0.057700
     22 H7         -32.3960    21.6220     1.8800 h1         1 WNY       0.050700
     23 H8         -32.3620    23.1960     1.0710 h1         1 WNY       0.050700
     24 H9         -35.9640    23.1250     1.8520 h1         1 WNY       0.050700
     25 H10        -36.2010    21.4230     1.4270 h1         1 WNY       0.050700
     26 H11        -36.1280    21.8130     3.8840 h1         1 WNY       0.057700
     27 H12        -34.9040    20.6590     3.3340 h1         1 WNY       0.057700
     28 H13        -36.3530    22.7070    -0.6200 ha         1 WNY       0.114500
     29 H14        -36.4290    22.4080    -3.0770 ha         1 WNY       0.125000
     30 H15        -32.2610    21.3060    -0.5860 ha         1 WNY       0.114500
     31 C02        -33.9460    22.5580     5.3920 c          1 WNY       0.605100
@<TRIPOS>BOND
     1     1     9 ar  
     2     1    11 ar  
     3     1    13 1   
     4     2     3 ar  
     5     2    10 ar  
     6     2    15 1   
     7     3    11 ar  
     8     3    16 1   
     9     4    17 1   
    10     4    18 1   
    11     4    19 1   
    12     4    31 1   
    13     5     6 1   
    14     5    12 1   
    15     5    20 1   
    16     5    21 1   
    17     6    13 1   
    18     6    22 1   
    19     6    23 1   
    20     7     8 1   
    21     7    13 1   
    22     7    24 1   
    23     7    25 1   
    24     8    12 1   
    25     8    26 1   
    26     8    27 1   
    27     9    10 ar  
    28     9    28 1   
    29    10    29 1   
    30    11    30 1   
    31    12    31 1   
    32    14    31 2   
@<TRIPOS>SUBSTRUCTURE
     1 WNY         1 TEMP              0 ****  ****    0 ROOT
