@<TRIPOS>MOLECULE
WNZ
   96    95     1     0     0
SMALL
No Charge or Current Charge


@<TRIPOS>ATOM
      1 C01        163.7920   174.8950   187.7410 c3         1 WNZ      -0.089100
      2 C02        165.2140   174.6870   187.1840 c3         1 WNZ      -0.076400
      3 C03        166.2200   175.7480   187.6860 c3         1 WNZ      -0.074400
      4 C04        167.6480   175.6100   187.1030 c3         1 WNZ      -0.072400
      5 C05        168.3850   174.2870   187.4330 c3         1 WNZ      -0.074400
      6 C06        168.5760   174.0240   188.9450 c3         1 WNZ      -0.077400
      7 C07        169.3940   172.7450   189.2340 c3         1 WNZ      -0.074400
      8 C08        169.6640   172.4880   190.7350 c3         1 WNZ      -0.075400
      9 C09        168.3930   172.2000   191.5730 c3         1 WNZ      -0.075400
     10 C10        168.6840   171.7610   193.0270 c3         1 WNZ      -0.068400
     11 C11        169.3370   172.8570   193.9070 c3         1 WNZ      -0.143400
     12 C12        169.5140   172.3780   195.3490 c          1 WNZ       0.587100
     13 C15        168.6220   172.5260   197.5800 c3         1 WNZ       0.137600
     14 C16        167.4510   173.2090   198.3430 c3         1 WNZ       0.135300
     15 C17        167.5890   173.1050   199.8920 c3         1 WNZ       0.203600
     16 C23        169.9560   175.9910   198.4590 c3         1 WNZ       0.230600
     17 C24        169.7450   176.6550   197.0610 c3         1 WNZ       0.140800
     18 C29        164.4270   171.0530   197.5450 c3         1 WNZ      -0.141400
     19 C30        164.4730   170.4150   196.1320 c3         1 WNZ      -0.060400
     20 C31        165.1760   171.2600   195.0400 c3         1 WNZ      -0.075400
     21 C32        164.5000   172.6210   194.7500 c3         1 WNZ      -0.080400
     22 C33        165.1360   173.3800   193.5650 c3         1 WNZ      -0.074400
     23 C34        164.4830   174.7580   193.3250 c3         1 WNZ      -0.076400
     24 C35        165.0410   175.5000   192.0910 c3         1 WNZ      -0.074400
     25 C36        164.4290   176.9080   191.9180 c3         1 WNZ      -0.075400
     26 C37        164.8980   177.6230   190.6340 c3         1 WNZ      -0.077400
     27 C38        164.3490   179.0580   190.4960 c3         1 WNZ      -0.075400
     28 C39        164.8040   179.7500   189.1970 c3         1 WNZ      -0.090100
     29 N25        168.6440   176.0810   196.2400 n8         1 WNZ      -0.979200
     30 O13        170.4350   171.6590   195.7130 o          1 WNZ      -0.493000
     31 O14        168.5600   172.8960   196.1860 os         1 WNZ      -0.448100
     32 O18        168.7440   173.8390   200.3480 os         1 WNZ      -0.598400
     33 O20        167.4130   175.7690   201.3820 o          1 WNZ      -0.808000
     34 O21        169.8770   175.8470   201.4730 o          1 WNZ      -0.808000
     35 O22        168.7240   176.0140   199.1940 os         1 WNZ      -0.591400
     36 O26        166.1650   172.6730   197.9160 os         1 WNZ      -0.438100
     37 O28        166.5220   170.5100   198.6400 o          1 WNZ      -0.505000
     38 P19        168.6840   175.4180   200.6860 p5         1 WNZ       1.386800
     39 H1         163.1110   174.1350   187.3400 hc         1 WNZ       0.029700
     40 H2         163.7880   174.8140   188.8340 hc         1 WNZ       0.029700
     41 H3         163.4060   175.8830   187.4630 hc         1 WNZ       0.029700
     42 H4         165.5560   173.6860   187.4720 hc         1 WNZ       0.037700
     43 H5         165.1760   174.7110   186.0880 hc         1 WNZ       0.037700
     44 H6         165.8390   176.7440   187.4270 hc         1 WNZ       0.036200
     45 H7         166.2700   175.7130   188.7800 hc         1 WNZ       0.036200
     46 H8         167.5970   175.7200   186.0120 hc         1 WNZ       0.036200
     47 H9         168.2550   176.4490   187.4670 hc         1 WNZ       0.036200
     48 H10        167.8510   173.4440   186.9800 hc         1 WNZ       0.034700
     49 H11        169.3710   174.3180   186.9530 hc         1 WNZ       0.034700
     50 H12        169.0780   174.8860   189.4020 hc         1 WNZ       0.040700
     51 H13        167.5930   173.9320   189.4200 hc         1 WNZ       0.040700
     52 H14        168.8760   171.8770   188.8060 hc         1 WNZ       0.034700
     53 H15        170.3600   172.8190   188.7180 hc         1 WNZ       0.034700
     54 H16        170.3440   171.6310   190.8200 hc         1 WNZ       0.040200
     55 H17        170.1950   173.3520   191.1520 hc         1 WNZ       0.040200
     56 H18        167.7500   173.0880   191.5930 hc         1 WNZ       0.037200
     57 H19        167.8180   171.4060   191.0820 hc         1 WNZ       0.037200
     58 H20        167.7390   171.4520   193.4880 hc         1 WNZ       0.052700
     59 H21        169.3270   170.8720   193.0150 hc         1 WNZ       0.052700
     60 H22        170.3220   173.1080   193.5000 hc         1 WNZ       0.068200
     61 H23        168.6820   173.7360   193.8940 hc         1 WNZ       0.068200
     62 H24        168.5830   171.4360   197.7000 h1         1 WNZ       0.075200
     63 H25        169.5720   172.8600   198.0160 h1         1 WNZ       0.075200
     64 H26        167.4740   174.2720   198.0820 h1         1 WNZ       0.124700
     65 H27        166.6710   173.4890   200.3570 h1         1 WNZ       0.051200
     66 H28        167.6890   172.0550   200.1890 h1         1 WNZ       0.051200
     67 H29        170.7410   176.5420   198.9940 h1         1 WNZ       0.017700
     68 H30        170.3040   174.9600   198.3190 h1         1 WNZ       0.017700
     69 H31        169.5510   177.7280   197.1920 h1         1 WNZ       0.018200
     70 H32        170.6770   176.5520   196.4890 h1         1 WNZ       0.018200
     71 H33        163.8530   171.9840   197.4800 hc         1 WNZ       0.067700
     72 H34        163.9250   170.3530   198.2230 hc         1 WNZ       0.067700
     73 H35        163.4470   170.2000   195.8080 hc         1 WNZ       0.042700
     74 H36        164.9820   169.4460   196.2010 hc         1 WNZ       0.042700
     75 H37        165.1990   170.6730   194.1130 hc         1 WNZ       0.041700
     76 H38        166.2210   171.4280   195.3260 hc         1 WNZ       0.041700
     77 H39        164.5580   173.2540   195.6430 hc         1 WNZ       0.044200
     78 H40        163.4360   172.4570   194.5400 hc         1 WNZ       0.044200
     79 H41        165.0500   172.7720   192.6560 hc         1 WNZ       0.034200
     80 H42        166.2060   173.5220   193.7600 hc         1 WNZ       0.034200
     81 H43        164.6290   175.3810   194.2170 hc         1 WNZ       0.039200
     82 H44        163.4010   174.6270   193.2020 hc         1 WNZ       0.039200
     83 H45        164.8420   174.9020   191.1930 hc         1 WNZ       0.035200
     84 H46        166.1310   175.5880   192.1810 hc         1 WNZ       0.035200
     85 H47        164.6900   177.5210   192.7900 hc         1 WNZ       0.037700
     86 H48        163.3340   176.8270   191.9000 hc         1 WNZ       0.037700
     87 H49        164.5720   177.0390   189.7670 hc         1 WNZ       0.036200
     88 H50        165.9950   177.6510   190.6140 hc         1 WNZ       0.036200
     89 H51        164.6770   179.6580   191.3540 hc         1 WNZ       0.037200
     90 H52        163.2530   179.0330   190.5220 hc         1 WNZ       0.037200
     91 H53        164.3920   180.7640   189.1390 hc         1 WNZ       0.029700
     92 H54        165.8980   179.8200   189.1570 hc         1 WNZ       0.029700
     93 H55        164.4610   179.1890   188.3190 hc         1 WNZ       0.029700
     94 H56        168.7100   176.4430   195.2840 hn         1 WNZ       0.377000
     95 H57        168.7750   175.0670   196.1440 hn         1 WNZ       0.377000
     96 C27        165.8250   171.3520   198.0940 c          1 WNZ       0.599100
@<TRIPOS>BOND
     1     1     2 1   
     2     1    39 1   
     3     1    40 1   
     4     1    41 1   
     5     2     3 1   
     6     2    42 1   
     7     2    43 1   
     8     3     4 1   
     9     3    44 1   
    10     3    45 1   
    11     4     5 1   
    12     4    46 1   
    13     4    47 1   
    14     5     6 1   
    15     5    48 1   
    16     5    49 1   
    17     6     7 1   
    18     6    50 1   
    19     6    51 1   
    20     7     8 1   
    21     7    52 1   
    22     7    53 1   
    23     8     9 1   
    24     8    54 1   
    25     8    55 1   
    26     9    10 1   
    27     9    56 1   
    28     9    57 1   
    29    10    11 1   
    30    10    58 1   
    31    10    59 1   
    32    11    12 1   
    33    11    60 1   
    34    11    61 1   
    35    12    30 2   
    36    12    31 1   
    37    13    14 1   
    38    13    31 1   
    39    13    62 1   
    40    13    63 1   
    41    14    15 1   
    42    14    36 1   
    43    14    64 1   
    44    15    32 1   
    45    15    65 1   
    46    15    66 1   
    47    16    17 1   
    48    16    35 1   
    49    16    67 1   
    50    16    68 1   
    51    17    29 1   
    52    17    69 1   
    53    17    70 1   
    54    18    19 1   
    55    18    71 1   
    56    18    72 1   
    57    18    96 1   
    58    19    20 1   
    59    19    73 1   
    60    19    74 1   
    61    20    21 1   
    62    20    75 1   
    63    20    76 1   
    64    21    22 1   
    65    21    77 1   
    66    21    78 1   
    67    22    23 1   
    68    22    79 1   
    69    22    80 1   
    70    23    24 1   
    71    23    81 1   
    72    23    82 1   
    73    24    25 1   
    74    24    83 1   
    75    24    84 1   
    76    25    26 1   
    77    25    85 1   
    78    25    86 1   
    79    26    27 1   
    80    26    87 1   
    81    26    88 1   
    82    27    28 1   
    83    27    89 1   
    84    27    90 1   
    85    28    91 1   
    86    28    92 1   
    87    28    93 1   
    88    29    94 1   
    89    29    95 1   
    90    32    38 1   
    91    33    38 1   
    92    34    38 1   
    93    35    38 1   
    94    36    96 1   
    95    37    96 2   
@<TRIPOS>SUBSTRUCTURE
     1 WNZ         1 TEMP              0 ****  ****    0 ROOT
