@<TRIPOS>MOLECULE
WNZ
   96    95     1     0     0
SMALL
abcg2


@<TRIPOS>ATOM
      1 C01        165.7730   172.9940   185.6060 c3         1 WNZ      -0.089100
      2 C02        166.7350   174.1040   186.0040 c3         1 WNZ      -0.076400
      3 C03        166.0300   175.2660   186.6930 c3         1 WNZ      -0.074400
      4 C04        166.9280   176.4640   186.9910 c3         1 WNZ      -0.072400
      5 C05        168.1450   176.1680   187.8620 c3         1 WNZ      -0.074400
      6 C06        167.8220   175.6110   189.2430 c3         1 WNZ      -0.077400
      7 C07        169.0820   175.4070   190.0770 c3         1 WNZ      -0.074400
      8 C08        168.8570   174.7940   191.4550 c3         1 WNZ      -0.075400
      9 C09        168.2260   173.4000   191.4130 c3         1 WNZ      -0.075400
     10 C10        168.6140   172.5140   192.5920 c3         1 WNZ      -0.068400
     11 C11        168.2040   173.0740   193.9450 c3         1 WNZ      -0.143400
     12 C12        168.6440   172.2030   195.0920 c          1 WNZ       0.587100
     13 C15        168.6470   171.9810   197.4380 c3         1 WNZ       0.137600
     14 C16        168.1450   172.7570   198.6410 c3         1 WNZ       0.135300
     15 C17        168.4900   172.0590   199.9580 c3         1 WNZ       0.203600
     16 C23        171.5660   174.4710   198.9710 c3         1 WNZ       0.230600
     17 C24        171.2670   175.7170   198.1650 c3         1 WNZ       0.140800
     18 C29        164.4290   172.7720   198.4220 c3         1 WNZ      -0.141400
     19 C30        163.4960   172.0320   197.4680 c3         1 WNZ      -0.060400
     20 C31        163.9330   172.0580   196.0050 c3         1 WNZ      -0.075400
     21 C32        164.1480   173.4620   195.4460 c3         1 WNZ      -0.080400
     22 C33        164.1480   173.5070   193.9230 c3         1 WNZ      -0.074400
     23 C34        164.3640   174.9090   193.3660 c3         1 WNZ      -0.076400
     24 C35        164.1330   175.0050   191.8630 c3         1 WNZ      -0.074400
     25 C36        164.2870   176.4200   191.3210 c3         1 WNZ      -0.075400
     26 C37        163.8490   176.5590   189.8690 c3         1 WNZ      -0.077400
     27 C38        164.0000   177.9720   189.3210 c3         1 WNZ      -0.075400
     28 C39        163.4650   178.1190   187.9040 c3         1 WNZ      -0.090100
     29 N25        169.9330   175.6900   197.5870 n8         1 WNZ      -0.979200
     30 O13        169.2740   171.1810   194.9880 o          1 WNZ      -0.493000
     31 O14        168.2620   172.7020   196.2660 os         1 WNZ      -0.448100
     32 O18        169.8890   171.9830   200.1120 os         1 WNZ      -0.598400
     33 O20        169.8970   173.4250   202.2450 o          1 WNZ      -0.808000
     34 O21        172.0950   172.5050   201.1390 o          1 WNZ      -0.808000
     35 O22        170.7130   174.4090   200.0980 os         1 WNZ      -0.591400
     36 O26        166.7500   173.0840   198.5580 os         1 WNZ      -0.438100
     37 O28        166.0080   170.9680   198.5110 o          1 WNZ      -0.505000
     38 P19        170.7150   173.0690   201.0460 p5         1 WNZ       1.386800
     39 H1         166.2910   172.1680   185.1160 hc         1 WNZ       0.029700
     40 H2         165.2580   172.5880   186.4790 hc         1 WNZ       0.029700
     41 H3         165.0110   173.3610   184.9170 hc         1 WNZ       0.029700
     42 H4         167.5060   173.6950   186.6620 hc         1 WNZ       0.037700
     43 H5         167.2600   174.4720   185.1160 hc         1 WNZ       0.037700
     44 H6         165.2010   175.6030   186.0600 hc         1 WNZ       0.036200
     45 H7         165.5630   174.9060   187.6160 hc         1 WNZ       0.036200
     46 H8         167.2710   176.8910   186.0430 hc         1 WNZ       0.036200
     47 H9         166.3290   177.2450   187.4710 hc         1 WNZ       0.036200
     48 H10        168.8140   175.4720   187.3440 hc         1 WNZ       0.034700
     49 H11        168.7180   177.0940   187.9780 hc         1 WNZ       0.034700
     50 H12        167.1400   176.2940   189.7650 hc         1 WNZ       0.040700
     51 H13        167.2870   174.6610   189.1460 hc         1 WNZ       0.040700
     52 H14        169.7720   174.7630   189.5190 hc         1 WNZ       0.034700
     53 H15        169.5920   176.3690   190.1900 hc         1 WNZ       0.034700
     54 H16        169.8270   174.7300   191.9600 hc         1 WNZ       0.040200
     55 H17        168.2450   175.4660   192.0650 hc         1 WNZ       0.040200
     56 H18        167.1360   173.4770   191.3480 hc         1 WNZ       0.037200
     57 H19        168.5440   172.8900   190.4980 hc         1 WNZ       0.037200
     58 H20        168.1700   171.5240   192.4590 hc         1 WNZ       0.052700
     59 H21        169.6980   172.3690   192.5740 hc         1 WNZ       0.052700
     60 H22        168.6230   174.0730   194.1040 hc         1 WNZ       0.068200
     61 H23        167.1190   173.2020   194.0030 hc         1 WNZ       0.068200
     62 H24        168.2530   170.9660   197.4090 h1         1 WNZ       0.075200
     63 H25        169.7360   171.9200   197.5040 h1         1 WNZ       0.075200
     64 H26        168.6200   173.7410   198.6400 h1         1 WNZ       0.124700
     65 H27        168.0170   172.6020   200.7810 h1         1 WNZ       0.051200
     66 H28        168.1030   171.0380   199.9670 h1         1 WNZ       0.051200
     67 H29        172.6150   174.4980   199.2810 h1         1 WNZ       0.017700
     68 H30        171.4460   173.5890   198.3280 h1         1 WNZ       0.017700
     69 H31        171.3460   176.5910   198.8160 h1         1 WNZ       0.018200
     70 H32        172.0680   175.8170   197.4190 h1         1 WNZ       0.018200
     71 H33        164.5010   173.8280   198.1630 hc         1 WNZ       0.067700
     72 H34        164.0140   172.7340   199.4350 hc         1 WNZ       0.067700
     73 H35        162.5080   172.4930   197.5510 hc         1 WNZ       0.042700
     74 H36        163.3780   170.9990   197.7990 hc         1 WNZ       0.042700
     75 H37        163.1610   171.5540   195.4170 hc         1 WNZ       0.041700
     76 H38        164.8420   171.4630   195.8710 hc         1 WNZ       0.041700
     77 H39        165.0890   173.8780   195.8220 hc         1 WNZ       0.044200
     78 H40        163.3560   174.1230   195.8150 hc         1 WNZ       0.044200
     79 H41        163.1900   173.1180   193.5610 hc         1 WNZ       0.034200
     80 H42        164.9150   172.8310   193.5280 hc         1 WNZ       0.034200
     81 H43        165.3760   175.2520   193.6080 hc         1 WNZ       0.039200
     82 H44        163.6820   175.6030   193.8700 hc         1 WNZ       0.039200
     83 H45        163.1260   174.6390   191.6380 hc         1 WNZ       0.035200
     84 H46        164.8220   174.3330   191.3380 hc         1 WNZ       0.035200
     85 H47        165.3310   176.7390   191.4230 hc         1 WNZ       0.037700
     86 H48        163.6990   177.1090   191.9380 hc         1 WNZ       0.037700
     87 H49        162.8010   176.2490   189.7810 hc         1 WNZ       0.036200
     88 H50        164.4210   175.8650   189.2450 hc         1 WNZ       0.036200
     89 H51        165.0560   178.2590   189.3470 hc         1 WNZ       0.037200
     90 H52        163.4810   178.6740   189.9810 hc         1 WNZ       0.037200
     91 H53        163.6010   179.1330   187.5250 hc         1 WNZ       0.029700
     92 H54        163.9720   177.4400   187.2160 hc         1 WNZ       0.029700
     93 H55        162.3980   177.8900   187.8600 hc         1 WNZ       0.029700
     94 H56        169.7410   176.5740   197.1340 hn         1 WNZ       0.377000
     95 H57        169.8940   174.9920   196.8550 hn         1 WNZ       0.377000
     96 C27        165.8020   172.1560   198.4930 c          1 WNZ       0.599100
@<TRIPOS>BOND
     1     1     2 1   
     2     1    39 1   
     3     1    40 1   
     4     1    41 1   
     5     2     3 1   
     6     2    42 1   
     7     2    43 1   
     8     3     4 1   
     9     3    44 1   
    10     3    45 1   
    11     4     5 1   
    12     4    46 1   
    13     4    47 1   
    14     5     6 1   
    15     5    48 1   
    16     5    49 1   
    17     6     7 1   
    18     6    50 1   
    19     6    51 1   
    20     7     8 1   
    21     7    52 1   
    22     7    53 1   
    23     8     9 1   
    24     8    54 1   
    25     8    55 1   
    26     9    10 1   
    27     9    56 1   
    28     9    57 1   
    29    10    11 1   
    30    10    58 1   
    31    10    59 1   
    32    11    12 1   
    33    11    60 1   
    34    11    61 1   
    35    12    30 2   
    36    12    31 1   
    37    13    14 1   
    38    13    31 1   
    39    13    62 1   
    40    13    63 1   
    41    14    15 1   
    42    14    36 1   
    43    14    64 1   
    44    15    32 1   
    45    15    65 1   
    46    15    66 1   
    47    16    17 1   
    48    16    35 1   
    49    16    67 1   
    50    16    68 1   
    51    17    29 1   
    52    17    69 1   
    53    17    70 1   
    54    18    19 1   
    55    18    71 1   
    56    18    72 1   
    57    18    96 1   
    58    19    20 1   
    59    19    73 1   
    60    19    74 1   
    61    20    21 1   
    62    20    75 1   
    63    20    76 1   
    64    21    22 1   
    65    21    77 1   
    66    21    78 1   
    67    22    23 1   
    68    22    79 1   
    69    22    80 1   
    70    23    24 1   
    71    23    81 1   
    72    23    82 1   
    73    24    25 1   
    74    24    83 1   
    75    24    84 1   
    76    25    26 1   
    77    25    85 1   
    78    25    86 1   
    79    26    27 1   
    80    26    87 1   
    81    26    88 1   
    82    27    28 1   
    83    27    89 1   
    84    27    90 1   
    85    28    91 1   
    86    28    92 1   
    87    28    93 1   
    88    29    94 1   
    89    29    95 1   
    90    32    38 1   
    91    33    38 1   
    92    34    38 1   
    93    35    38 1   
    94    36    96 1   
    95    37    96 2   
@<TRIPOS>SUBSTRUCTURE
     1 WNZ         1 TEMP              0 ****  ****    0 ROOT
