@<TRIPOS>MOLECULE
WO0
   49    50     1     0     0
SMALL
abcg2


@<TRIPOS>ATOM
      1 C10          6.4790     6.9680    17.6910 c6         1 WO0       0.209000
      2 C11          3.1620     6.9460    21.8500 c6         1 WO0      -0.063400
      3 C13          5.3070     7.6060    22.9070 c3         1 WO0      -0.079600
      4 C15          7.2340     6.1700    16.6120 c3         1 WO0      -0.233400
      5 C17          8.6340     7.9290    18.7200 c3         1 WO0      -0.074100
      6 C18          6.4410     5.9750    15.3100 c          1 WO0       0.705000
      7 O19          5.8440     6.9990    14.8510 o          1 WO0      -0.732500
      8 O20          6.4480     4.8440    14.7750 o          1 WO0      -0.732500
      9 O16          6.1440     8.2630    17.1620 oh         1 WO0      -0.730000
     10 C4           5.2000     6.2080    18.0750 c6         1 WO0      -0.091400
     11 C1           4.3660     6.8840    19.1670 c6         1 WO0      -0.041700
     12 C3           3.0200     6.1480    19.4250 c6         1 WO0      -0.041000
     13 C8           3.2220     4.6570    19.7410 c3         1 WO0      -0.081100
     14 C9           2.1100     6.2620    18.1930 c3         1 WO0      -0.081100
     15 C7           2.3020     6.8370    20.5990 c6         1 WO0      -0.066400
     16 C5           4.4720     7.7210    21.6240 c6         1 WO0      -0.042000
     17 C12          4.1590     9.2070    21.3810 c3         1 WO0      -0.079600
     18 C2           5.2320     7.0750    20.4300 c6         1 WO0      -0.039700
     19 C6           6.5130     7.8320    20.0600 c6         1 WO0      -0.062400
     20 C14          7.3350     7.1600    18.9570 c6         1 WO0      -0.052700
     21 H94          2.5960     7.4340    22.6500 hc         1 WO0       0.027200
     22 H11          3.4070     5.9430    22.2150 hc         1 WO0       0.027200
     23 H98          6.2250     8.1920    22.8530 hc         1 WO0       0.027367
     24 H13          4.7320     7.9700    23.7640 hc         1 WO0       0.027367
     25 H97          5.5770     6.5650    23.1010 hc         1 WO0       0.027367
     26 H99          7.5240     5.1960    17.0070 hc         1 WO0       0.034700
     27 H15          8.1490     6.7070    16.3480 hc         1 WO0       0.034700
     28 H17          9.1830     8.0360    19.6590 hc         1 WO0       0.025700
     29 H:A          9.2910     7.4240    18.0110 hc         1 WO0       0.025700
     30 H:B          8.4280     8.9300    18.3360 hc         1 WO0       0.025700
     31 H16          5.9180     8.0690    16.2200 ho         1 WO0       0.507000
     32 H42          4.5990     6.0780    17.1740 hc         1 WO0       0.051200
     33 H41          5.4950     5.2080    18.4060 hc         1 WO0       0.051200
     34 H1           4.1030     7.8810    18.7990 hc         1 WO0       0.060700
     35 H83          2.2690     4.2080    20.0310 hc         1 WO0       0.030700
     36 H81          3.5920     4.1150    18.8700 hc         1 WO0       0.030700
     37 H82          3.9270     4.4970    20.5570 hc         1 WO0       0.030700
     38 H91          1.1260     5.8400    18.4130 hc         1 WO0       0.030700
     39 H92          1.9720     7.3090    17.9090 hc         1 WO0       0.030700
     40 H93          2.5140     5.7270    17.3330 hc         1 WO0       0.030700
     41 H71          1.9890     7.8350    20.2800 hc         1 WO0       0.029700
     42 H72          1.3840     6.2850    20.8260 hc         1 WO0       0.029700
     43 H95          5.0700     9.8050    21.3550 hc         1 WO0       0.027367
     44 H96          3.6260     9.3720    20.4450 hc         1 WO0       0.027367
     45 H12          3.5340     9.5900    22.1920 hc         1 WO0       0.027367
     46 H2           5.5350     6.0770    20.7720 hc         1 WO0       0.033700
     47 H61          6.2600     8.8430    19.7320 hc         1 WO0       0.033200
     48 H62          7.1480     7.9410    20.9420 hc         1 WO0       0.033200
     49 H14          7.5940     6.1510    19.3000 hc         1 WO0       0.029700
@<TRIPOS>BOND
     1     1     4 1   
     2     1     9 1   
     3     1    10 1   
     4     1    20 1   
     5     2    15 1   
     6     2    16 1   
     7     2    21 1   
     8     2    22 1   
     9     3    16 1   
    10     3    23 1   
    11     3    24 1   
    12     3    25 1   
    13     4     6 1   
    14     4    26 1   
    15     4    27 1   
    16     5    20 1   
    17     5    28 1   
    18     5    29 1   
    19     5    30 1   
    20     6     7 1   
    21     6     8 1   
    22     9    31 1   
    23    10    11 1   
    24    10    32 1   
    25    10    33 1   
    26    11    12 1   
    27    11    18 1   
    28    11    34 1   
    29    12    13 1   
    30    12    14 1   
    31    12    15 1   
    32    13    35 1   
    33    13    36 1   
    34    13    37 1   
    35    14    38 1   
    36    14    39 1   
    37    14    40 1   
    38    15    41 1   
    39    15    42 1   
    40    16    17 1   
    41    16    18 1   
    42    17    43 1   
    43    17    44 1   
    44    17    45 1   
    45    18    19 1   
    46    18    46 1   
    47    19    20 1   
    48    19    47 1   
    49    19    48 1   
    50    20    49 1   
@<TRIPOS>SUBSTRUCTURE
     1 WO0         1 TEMP              0 ****  ****    0 ROOT
