@<TRIPOS>MOLECULE
WO0
   49    50     1     0     0
SMALL
No Charge or Current Charge


@<TRIPOS>ATOM
      1 C10          6.4990     6.9770    17.6400 c6         1 WO0       0.209000
      2 C11          3.1370     6.9340    21.8940 c6         1 WO0      -0.063400
      3 C13          5.2950     7.6760    22.9600 c3         1 WO0      -0.079600
      4 C15          7.2810     6.2170    16.5220 c3         1 WO0      -0.233400
      5 C17          8.7200     7.8820    18.7390 c3         1 WO0      -0.074100
      6 C18          6.4650     6.0780    15.2350 c          1 WO0       0.705000
      7 O19          6.3150     7.0930    14.5720 o          1 WO0      -0.732500
      8 O20          5.9090     5.0170    15.0000 o          1 WO0      -0.732500
      9 O16          6.1770     8.2540    17.0800 oh         1 WO0      -0.730000
     10 C4           5.1810     6.2230    18.0000 c6         1 WO0      -0.091400
     11 C1           4.3490     6.8870    19.1510 c6         1 WO0      -0.041700
     12 C3           2.9930     6.1190    19.4430 c6         1 WO0      -0.041000
     13 C8           3.2090     4.6010    19.7740 c3         1 WO0      -0.081100
     14 C9           2.0380     6.1640    18.2060 c3         1 WO0      -0.081100
     15 C7           2.2570     6.8160    20.6280 c6         1 WO0      -0.066400
     16 C5           4.4540     7.7270    21.6420 c6         1 WO0      -0.042000
     17 C12          4.1230     9.2400    21.3940 c3         1 WO0      -0.079600
     18 C2           5.2380     7.0600    20.4370 c6         1 WO0      -0.039700
     19 C6           6.5540     7.8230    20.0800 c6         1 WO0      -0.062400
     20 C14          7.3630     7.1370    18.9450 c6         1 WO0      -0.052700
     21 H94          2.5530     7.4190    22.6890 hc         1 WO0       0.027200
     22 H11          3.3710     5.9310    22.2770 hc         1 WO0       0.027200
     23 H98          6.1820     8.3180    22.9160 hc         1 WO0       0.027367
     24 H13          4.7050     8.0120    23.8210 hc         1 WO0       0.027367
     25 H97          5.6350     6.6560    23.1770 hc         1 WO0       0.027367
     26 H99          7.5680     5.2280    16.8990 hc         1 WO0       0.034700
     27 H15          8.1500     6.8390    16.2820 hc         1 WO0       0.034700
     28 H17          9.2460     8.0100    19.6920 hc         1 WO0       0.025700
     29 H:A          9.3970     7.3250    18.0830 hc         1 WO0       0.025700
     30 H:B          8.5740     8.8800    18.3090 hc         1 WO0       0.025700
     31 H16          6.1800     8.0910    16.1010 ho         1 WO0       0.507000
     32 H42          4.5580     6.1450    17.1020 hc         1 WO0       0.051200
     33 H41          5.4440     5.1940    18.2790 hc         1 WO0       0.051200
     34 H1           4.0780     7.8920    18.8010 hc         1 WO0       0.060700
     35 H83          2.2700     4.1270    20.0860 hc         1 WO0       0.030700
     36 H81          3.5680     4.0380    18.9040 hc         1 WO0       0.030700
     37 H82          3.9310     4.4430    20.5810 hc         1 WO0       0.030700
     38 H91          1.0490     5.7580    18.4510 hc         1 WO0       0.030700
     39 H92          1.8890     7.1920    17.8540 hc         1 WO0       0.030700
     40 H93          2.4170     5.5780    17.3620 hc         1 WO0       0.030700
     41 H71          1.9150     7.8130    20.3220 hc         1 WO0       0.029700
     42 H72          1.3440     6.2600    20.8800 hc         1 WO0       0.029700
     43 H95          5.0260     9.8610    21.3780 hc         1 WO0       0.027367
     44 H96          3.6000     9.4070    20.4460 hc         1 WO0       0.027367
     45 H12          3.4820     9.6400    22.1890 hc         1 WO0       0.027367
     46 H2           5.5420     6.0570    20.7650 hc         1 WO0       0.033700
     47 H61          6.3280     8.8550    19.7800 hc         1 WO0       0.033200
     48 H62          7.1970     7.8950    20.9660 hc         1 WO0       0.033200
     49 H14          7.6350     6.1320    19.2970 hc         1 WO0       0.029700
@<TRIPOS>BOND
     1     1     4 1   
     2     1     9 1   
     3     1    10 1   
     4     1    20 1   
     5     2    15 1   
     6     2    16 1   
     7     2    21 1   
     8     2    22 1   
     9     3    16 1   
    10     3    23 1   
    11     3    24 1   
    12     3    25 1   
    13     4     6 1   
    14     4    26 1   
    15     4    27 1   
    16     5    20 1   
    17     5    28 1   
    18     5    29 1   
    19     5    30 1   
    20     6     7 1   
    21     6     8 1   
    22     9    31 1   
    23    10    11 1   
    24    10    32 1   
    25    10    33 1   
    26    11    12 1   
    27    11    18 1   
    28    11    34 1   
    29    12    13 1   
    30    12    14 1   
    31    12    15 1   
    32    13    35 1   
    33    13    36 1   
    34    13    37 1   
    35    14    38 1   
    36    14    39 1   
    37    14    40 1   
    38    15    41 1   
    39    15    42 1   
    40    16    17 1   
    41    16    18 1   
    42    17    43 1   
    43    17    44 1   
    44    17    45 1   
    45    18    19 1   
    46    18    46 1   
    47    19    20 1   
    48    19    47 1   
    49    19    48 1   
    50    20    49 1   
@<TRIPOS>SUBSTRUCTURE
     1 WO0         1 TEMP              0 ****  ****    0 ROOT
