@<TRIPOS>MOLECULE
WO1
   30    31     1     0     0
SMALL
No Charge or Current Charge


@<TRIPOS>ATOM
      1 C13        -17.9670   -17.9660    -4.5890 cc         1 WO1      -0.207000
      2 C01        -19.1110   -10.6780    -6.5040 c3         1 WO1       0.153100
      3 C03        -20.9640   -11.7140    -7.7580 c6         1 WO1       0.165800
      4 C04        -21.8580   -12.9720    -7.9000 c6         1 WO1      -0.072400
      5 C05        -22.6430   -13.2520    -6.5940 c6         1 WO1      -0.075400
      6 C06        -21.6850   -13.3500    -5.3820 c6         1 WO1       0.182300
      7 C07        -20.7770   -12.0760    -5.3250 c6         1 WO1       0.141800
      8 C09        -20.1530   -15.0190    -4.4260 c          1 WO1       0.538600
      9 C11        -19.3460   -16.2330    -4.7340 cd         1 WO1       0.065500
     10 C12        -18.5120   -16.8870    -3.8660 cc         1 WO1      -0.104000
     11 C14        -18.5000   -17.9030    -5.8480 cd         1 WO1       0.146900
     12 N02        -20.0350   -11.8280    -6.6010 n3         1 WO1      -0.707600
     13 O08        -20.9100   -14.5690    -5.4790 os         1 WO1      -0.414100
     14 O10        -20.1520   -14.4770    -3.3270 o          1 WO1      -0.493000
     15 O15        -19.3640   -16.8370    -5.9770 os         1 WO1      -0.199000
     16 H1         -17.2610   -18.7000    -4.2120 ha         1 WO1       0.146000
     17 H2         -18.3980   -10.8230    -5.6810 h1         1 WO1       0.031033
     18 H3         -18.5370   -10.5630    -7.4320 h1         1 WO1       0.031033
     19 H4         -19.6630    -9.7460    -6.3210 h1         1 WO1       0.031033
     20 H5         -20.3960   -11.5790    -8.6900 h1         1 WO1       0.029700
     21 H6         -21.6080   -10.8290    -7.6410 h1         1 WO1       0.029700
     22 H7         -22.5570   -12.8370    -8.7360 hc         1 WO1       0.054200
     23 H8         -21.2320   -13.8380    -8.1530 hc         1 WO1       0.054200
     24 H9         -23.3690   -12.4460    -6.4210 hc         1 WO1       0.051200
     25 H10        -23.2250   -14.1790    -6.6910 hc         1 WO1       0.051200
     26 H11        -22.2900   -13.4000    -4.4650 h1         1 WO1       0.065700
     27 H12        -20.0700   -12.1720    -4.4880 h1         1 WO1       0.045700
     28 H13        -21.4150   -11.2100    -5.0910 h1         1 WO1       0.045700
     29 H14        -18.3050   -16.6340    -2.8300 ha         1 WO1       0.156000
     30 H15        -18.3510   -18.5350    -6.7140 h4         1 WO1       0.055100
@<TRIPOS>BOND
     1     1    10 1   
     2     1    11 2   
     3     1    16 1   
     4     2    12 1   
     5     2    17 1   
     6     2    18 1   
     7     2    19 1   
     8     3     4 1   
     9     3    12 1   
    10     3    20 1   
    11     3    21 1   
    12     4     5 1   
    13     4    22 1   
    14     4    23 1   
    15     5     6 1   
    16     5    24 1   
    17     5    25 1   
    18     6     7 1   
    19     6    13 1   
    20     6    26 1   
    21     7    12 1   
    22     7    27 1   
    23     7    28 1   
    24     8     9 1   
    25     8    13 1   
    26     8    14 2   
    27     9    10 2   
    28     9    15 1   
    29    10    29 1   
    30    11    15 1   
    31    11    30 1   
@<TRIPOS>SUBSTRUCTURE
     1 WO1         1 TEMP              0 ****  ****    0 ROOT
