@<TRIPOS>MOLECULE
WO1
   30    31     1     0     0
SMALL
bcc


@<TRIPOS>ATOM
      1 C13        -18.0550   -17.9180    -4.6770 cc         1 WO1      -0.290300
      2 C01        -19.1530   -10.7510    -6.5300 c3         1 WO1       0.153100
      3 C03        -20.9420   -11.8070    -7.7230 c6         1 WO1       0.165800
      4 C04        -21.7920   -13.0630    -7.8420 c6         1 WO1      -0.072400
      5 C05        -22.5530   -13.3180    -6.5470 c6         1 WO1      -0.075400
      6 C06        -21.6190   -13.3070    -5.3500 c6         1 WO1       0.159100
      7 C07        -20.7710   -12.0450    -5.3450 c6         1 WO1       0.141800
      8 C09        -20.1860   -14.9550    -4.3970 c          1 WO1       0.587600
      9 C11        -19.3800   -16.1360    -4.6930 cd         1 WO1       0.175200
     10 C12        -18.6190   -16.9010    -3.8640 cc         1 WO1      -0.187300
     11 C14        -18.5180   -17.6890    -5.9330 cd         1 WO1       0.256600
     12 N02        -20.0440   -11.8880    -6.5860 n3         1 WO1      -0.707600
     13 O08        -20.7860   -14.4780    -5.4700 os         1 WO1      -0.390900
     14 O10        -20.2730   -14.5000    -3.2800 o          1 WO1      -0.542000
     15 O15        -19.3190   -16.6150    -5.9540 os         1 WO1      -0.287800
     16 H1         -17.3980   -18.7160    -4.3710 ha         1 WO1       0.164000
     17 H2         -18.4680   -10.8540    -5.6870 h1         1 WO1       0.031033
     18 H3         -18.5570   -10.7010    -7.4420 h1         1 WO1       0.031033
     19 H4         -19.6790    -9.7900    -6.4190 h1         1 WO1       0.031033
     20 H5         -20.3440   -11.6760    -8.6290 h1         1 WO1       0.029700
     21 H6         -21.6030   -10.9240    -7.6470 h1         1 WO1       0.029700
     22 H7         -22.4920   -12.9500    -8.6710 hc         1 WO1       0.054200
     23 H8         -21.1520   -13.9160    -8.0800 hc         1 WO1       0.054200
     24 H9         -23.2870   -12.5230    -6.3890 hc         1 WO1       0.051200
     25 H10        -23.1110   -14.2560    -6.5860 hc         1 WO1       0.051200
     26 H11        -22.1930   -13.3620    -4.4210 h1         1 WO1       0.065700
     27 H12        -20.0620   -12.0650    -4.5140 h1         1 WO1       0.045700
     28 H13        -21.4560   -11.2000    -5.1520 h1         1 WO1       0.045700
     29 H14        -18.4800   -16.7550    -2.8060 ha         1 WO1       0.174000
     30 H15        -18.3610   -18.1940    -6.8720 h4         1 WO1       0.055100
@<TRIPOS>BOND
     1     1    10 1   
     2     1    11 2   
     3     1    16 1   
     4     2    12 1   
     5     2    17 1   
     6     2    18 1   
     7     2    19 1   
     8     3     4 1   
     9     3    12 1   
    10     3    20 1   
    11     3    21 1   
    12     4     5 1   
    13     4    22 1   
    14     4    23 1   
    15     5     6 1   
    16     5    24 1   
    17     5    25 1   
    18     6     7 1   
    19     6    13 1   
    20     6    26 1   
    21     7    12 1   
    22     7    27 1   
    23     7    28 1   
    24     8     9 1   
    25     8    13 1   
    26     8    14 2   
    27     9    10 2   
    28     9    15 1   
    29    10    29 1   
    30    11    15 1   
    31    11    30 1   
@<TRIPOS>SUBSTRUCTURE
     1 WO1         1 TEMP              0 ****  ****    0 ROOT
