@<TRIPOS>MOLECULE
WO7
   24    24     1     0     0
SMALL
No Charge or Current Charge


@<TRIPOS>ATOM
      1 C10        -32.2300    31.5640   -26.0740 c3         1 WO7       0.069000
      2 C01        -35.1880    31.4880   -25.6170 c3         1 WO7      -0.176100
      3 C02        -34.2020    30.9300   -24.5850 c          1 WO7       0.600100
      4 C05        -31.8760    30.6140   -23.7210 c3         1 WO7       0.101000
      5 C06        -30.3810    30.9760   -23.8790 c3         1 WO7      -0.129400
      6 C07        -30.1040    32.4910   -23.9960 c3         1 WO7       0.159800
      7 C09        -31.6070    32.9780   -25.9770 c3         1 WO7       0.138800
      8 N04        -32.8050    31.0730   -24.7880 n          1 WO7      -0.412800
      9 N08        -30.2420    32.9620   -25.3910 n7         1 WO7      -0.855400
     10 O03        -34.6330    30.3930   -23.5710 o          1 WO7      -0.608100
     11 H1         -32.9970    31.5870   -26.8550 h1         1 WO7       0.049200
     12 H2         -31.4730    30.8520   -26.4280 h1         1 WO7       0.049200
     13 H3         -36.2250    31.4500   -25.2650 hc         1 WO7       0.059033
     14 H4         -34.8930    32.5050   -25.9000 hc         1 WO7       0.059033
     15 H5         -35.0810    30.9260   -26.5510 hc         1 WO7       0.059033
     16 H6         -32.2220    31.0340   -22.7670 h1         1 WO7       0.056200
     17 H7         -31.9600    29.5220   -23.6410 h1         1 WO7       0.056200
     18 H8         -29.9410    30.4370   -24.7270 hc         1 WO7       0.046200
     19 H9         -29.8600    30.6070   -22.9870 hc         1 WO7       0.046200
     20 H10        -29.0740    32.6730   -23.6580 h1         1 WO7       0.056700
     21 H11        -30.7670    33.0470   -23.3170 h1         1 WO7       0.056700
     22 H12        -31.5580    33.3950   -26.9920 h1         1 WO7       0.055700
     23 H13        -32.2780    33.6270   -25.3970 h1         1 WO7       0.055700
     24 H14        -29.6370    32.3820   -25.9860 hn         1 WO7       0.405000
@<TRIPOS>BOND
     1     1     7 1   
     2     1     8 1   
     3     1    11 1   
     4     1    12 1   
     5     2     3 1   
     6     2    13 1   
     7     2    14 1   
     8     2    15 1   
     9     3     8 1   
    10     3    10 2   
    11     4     5 1   
    12     4     8 1   
    13     4    16 1   
    14     4    17 1   
    15     5     6 1   
    16     5    18 1   
    17     5    19 1   
    18     6     9 1   
    19     6    20 1   
    20     6    21 1   
    21     7     9 1   
    22     7    22 1   
    23     7    23 1   
    24     9    24 1   
@<TRIPOS>SUBSTRUCTURE
     1 WO7         1 TEMP              0 ****  ****    0 ROOT
