@<TRIPOS>MOLECULE
WO7
   24    24     1     0     0
SMALL
abcg2


@<TRIPOS>ATOM
      1 C10        -32.2040    31.4210   -26.0820 c3         1 WO7       0.069000
      2 C01        -34.9840    31.6800   -25.5460 c3         1 WO7      -0.176100
      3 C02        -34.0680    31.0550   -24.5170 c          1 WO7       0.600100
      4 C05        -31.8440    30.4270   -23.8110 c3         1 WO7       0.101000
      5 C06        -30.4260    30.9760   -23.8960 c3         1 WO7      -0.129400
      6 C07        -30.3290    32.5040   -23.9990 c3         1 WO7       0.159800
      7 C09        -31.6680    32.8560   -26.0330 c3         1 WO7       0.138800
      8 N04        -32.7520    30.9730   -24.8130 n          1 WO7      -0.412800
      9 N08        -30.4160    33.0620   -25.3360 n7         1 WO7      -0.855400
     10 O03        -34.5200    30.6330   -23.4580 o          1 WO7      -0.608100
     11 H1         -32.9670    31.3460   -26.8560 h1         1 WO7       0.049200
     12 H2         -31.4120    30.7350   -26.3880 h1         1 WO7       0.049200
     13 H3         -35.9730    31.8000   -25.1100 hc         1 WO7       0.059033
     14 H4         -34.6350    32.6550   -25.8860 hc         1 WO7       0.059033
     15 H5         -35.0770    31.0440   -26.4270 hc         1 WO7       0.059033
     16 H6         -32.2480    30.6710   -22.8290 h1         1 WO7       0.056200
     17 H7         -31.8190    29.3340   -23.8780 h1         1 WO7       0.056200
     18 H8         -29.8700    30.5240   -24.7220 hc         1 WO7       0.046200
     19 H9         -29.9180    30.6450   -22.9860 hc         1 WO7       0.046200
     20 H10        -29.3700    32.8190   -23.5820 h1         1 WO7       0.056700
     21 H11        -31.0990    32.9680   -23.3730 h1         1 WO7       0.056700
     22 H12        -31.5350    33.2070   -27.0590 h1         1 WO7       0.055700
     23 H13        -32.4370    33.4950   -25.5840 h1         1 WO7       0.055700
     24 H14        -29.6620    32.6830   -25.8960 hn         1 WO7       0.405000
@<TRIPOS>BOND
     1     1     7 1   
     2     1     8 1   
     3     1    11 1   
     4     1    12 1   
     5     2     3 1   
     6     2    13 1   
     7     2    14 1   
     8     2    15 1   
     9     3     8 1   
    10     3    10 2   
    11     4     5 1   
    12     4     8 1   
    13     4    16 1   
    14     4    17 1   
    15     5     6 1   
    16     5    18 1   
    17     5    19 1   
    18     6     9 1   
    19     6    20 1   
    20     6    21 1   
    21     7     9 1   
    22     7    22 1   
    23     7    23 1   
    24     9    24 1   
@<TRIPOS>SUBSTRUCTURE
     1 WO7         1 TEMP              0 ****  ****    0 ROOT
