@<TRIPOS>MOLECULE
WO9
  111   110     1     0     0
SMALL
abcg2


@<TRIPOS>ATOM
      1 C02        172.3900   168.8320   180.6080 c3         1 WO9      -0.088100
      2 C03        173.0110   168.2210   179.3600 c3         1 WO9      -0.074400
      3 C04        173.4500   169.2700   178.3460 c3         1 WO9      -0.076400
      4 C05        174.0630   168.6770   177.0840 c3         1 WO9      -0.073400
      5 C06        174.5020   169.7390   176.0840 c3         1 WO9      -0.076400
      6 C07        175.1120   169.1690   174.8100 c3         1 WO9      -0.073400
      7 C08        175.5370   170.2540   173.8290 c3         1 WO9      -0.080400
      8 C09        176.1730   169.7090   172.5560 c3         1 WO9      -0.070400
      9 C10        176.5070   170.7780   171.5180 c3         1 WO9      -0.072400
     10 C11        177.5100   171.8220   171.9950 c3         1 WO9      -0.075400
     11 C12        177.9350   172.7910   170.8990 c3         1 WO9      -0.076400
     12 C13        178.9260   173.8400   171.3850 c3         1 WO9      -0.075400
     13 C14        179.4200   174.7670   170.2810 c3         1 WO9      -0.074400
     14 C15        180.4190   175.8000   170.7810 c3         1 WO9      -0.077400
     15 C16        180.9510   176.7070   169.6770 c3         1 WO9      -0.067400
     16 C17        181.9380   177.7220   170.2260 c3         1 WO9      -0.141400
     17 C18        182.4720   178.6960   169.2120 c          1 WO9       0.593100
     18 C21        183.9150   180.5760   169.0110 c3         1 WO9       0.157600
     19 C22        182.8590   181.6480   168.6840 c3         1 WO9       0.132300
     20 C23        183.5110   183.0150   168.7320 c3         1 WO9       0.219600
     21 C29        180.7180   184.9370   170.4940 c3         1 WO9       0.229600
     22 C30        179.8810   186.0710   171.0580 c3         1 WO9       0.116800
     23 C35        179.6640   181.0630   170.4300 c3         1 WO9      -0.142400
     24 C36        178.7060   179.9720   169.9410 c3         1 WO9      -0.073400
     25 C37        178.1180   179.1520   171.0810 c3         1 WO9      -0.075400
     26 C38        177.1510   178.0860   170.5850 c3         1 WO9      -0.076400
     27 C39        176.6180   177.1830   171.6890 c3         1 WO9      -0.074400
     28 C40        175.6340   176.1400   171.1760 c3         1 WO9      -0.075400
     29 C41        175.0310   175.2790   172.2760 c3         1 WO9      -0.074400
     30 C42        174.0580   174.2310   171.7510 c3         1 WO9      -0.075400
     31 C43        173.3210   173.4830   172.8540 c3         1 WO9      -0.076400
     32 C44        172.4110   172.3800   172.3300 c3         1 WO9      -0.076400
     33 C45        171.6240   171.6840   173.4300 c3         1 WO9      -0.089100
     34 N31        178.5270   185.5940   171.2920 n8         1 WO9      -1.013200
     35 O19        182.1060   178.7940   168.0680 o          1 WO9      -0.486000
     36 O20        183.4060   179.4750   169.7520 os         1 WO9      -0.440100
     37 O24        182.6250   183.9880   168.2380 os         1 WO9      -0.584400
     38 O26        184.1300   185.9140   169.0540 o          1 WO9      -0.810500
     39 O27        181.7760   186.3200   167.9660 o          1 WO9      -0.810500
     40 O28        182.0700   185.3250   170.3310 os         1 WO9      -0.602400
     41 O32        181.8340   181.5520   169.6710 os         1 WO9      -0.452100
     42 O34        180.1560   181.8100   168.2050 o          1 WO9      -0.458000
     43 P25        182.7030   185.5280   168.8290 p5         1 WO9       1.391800
     44 H1         172.0880   168.0670   181.3240 hc         1 WO9       0.030700
     45 H2         173.0950   169.4960   181.1130 hc         1 WO9       0.030700
     46 H3         171.5060   169.4210   180.3600 hc         1 WO9       0.030700
     47 H4         172.2940   167.5410   178.8890 hc         1 WO9       0.035200
     48 H5         173.8720   167.6060   179.6400 hc         1 WO9       0.035200
     49 H6         174.1720   169.9470   178.8170 hc         1 WO9       0.037700
     50 H7         172.5890   169.8900   178.0730 hc         1 WO9       0.037700
     51 H8         173.3390   168.0060   176.6080 hc         1 WO9       0.036200
     52 H9         174.9220   168.0540   177.3540 hc         1 WO9       0.036200
     53 H10        175.2260   170.4080   176.5630 hc         1 WO9       0.038200
     54 H11        173.6420   170.3650   175.8220 hc         1 WO9       0.038200
     55 H12        174.3910   168.5000   174.3270 hc         1 WO9       0.035200
     56 H13        175.9770   168.5490   175.0670 hc         1 WO9       0.035200
     57 H14        176.2310   170.9340   174.3320 hc         1 WO9       0.041200
     58 H15        174.6630   170.8590   173.5610 hc         1 WO9       0.041200
     59 H16        175.4940   168.9770   172.1060 hc         1 WO9       0.035200
     60 H17        177.0830   169.1570   172.8160 hc         1 WO9       0.035200
     61 H18        175.5860   171.2800   171.2030 hc         1 WO9       0.037200
     62 H19        176.9040   170.2870   170.6240 hc         1 WO9       0.037200
     63 H20        178.3960   171.3170   172.3950 hc         1 WO9       0.037200
     64 H21        177.0870   172.3960   172.8260 hc         1 WO9       0.037200
     65 H22        177.0510   173.2920   170.4900 hc         1 WO9       0.037700
     66 H23        178.3760   172.2280   170.0690 hc         1 WO9       0.037700
     67 H24        179.7850   173.3400   171.8460 hc         1 WO9       0.036700
     68 H25        178.4600   174.4380   172.1770 hc         1 WO9       0.036700
     69 H26        178.5670   175.2800   169.8250 hc         1 WO9       0.040200
     70 H27        179.8790   174.1700   169.4850 hc         1 WO9       0.040200
     71 H28        181.2570   175.2900   171.2680 hc         1 WO9       0.036200
     72 H29        179.9460   176.4160   171.5550 hc         1 WO9       0.036200
     73 H30        181.4270   176.1010   168.9020 hc         1 WO9       0.053700
     74 H31        180.1130   177.2200   169.1990 hc         1 WO9       0.053700
     75 H32        181.4650   178.3150   171.0180 hc         1 WO9       0.069200
     76 H33        182.7820   177.2180   170.7070 hc         1 WO9       0.069200
     77 H34        184.3900   180.2460   168.0850 h1         1 WO9       0.061200
     78 H35        184.6920   180.9900   169.6550 h1         1 WO9       0.061200
     79 H36        182.4380   181.4720   167.6940 h1         1 WO9       0.093700
     80 H37        184.4250   182.9810   168.1260 h1         1 WO9       0.029200
     81 H38        183.8240   183.2140   169.7640 h1         1 WO9       0.029200
     82 H39        180.2710   184.5960   169.5530 h1         1 WO9       0.023700
     83 H40        180.6860   184.0910   171.1870 h1         1 WO9       0.023700
     84 H41        179.9420   186.9340   170.3810 h1         1 WO9       0.039700
     85 H42        180.3060   186.3880   172.0140 h1         1 WO9       0.039700
     86 H43        179.0970   181.9170   170.8120 hc         1 WO9       0.071700
     87 H44        180.2720   180.6920   171.2570 hc         1 WO9       0.071700
     88 H45        179.2330   179.2930   169.2660 hc         1 WO9       0.052200
     89 H46        177.9040   180.4220   169.3510 hc         1 WO9       0.052200
     90 H47        177.6100   179.8100   171.7930 hc         1 WO9       0.036200
     91 H48        178.9340   178.6730   171.6350 hc         1 WO9       0.036200
     92 H49        177.6490   177.4700   169.8270 hc         1 WO9       0.038700
     93 H50        176.3110   178.5690   170.0740 hc         1 WO9       0.038700
     94 H51        176.1340   177.7950   172.4580 hc         1 WO9       0.036200
     95 H52        177.4560   176.6790   172.1840 hc         1 WO9       0.036200
     96 H53        176.1350   175.4980   170.4420 hc         1 WO9       0.037700
     97 H54        174.8260   176.6430   170.6330 hc         1 WO9       0.037700
     98 H55        175.8320   174.7810   172.8350 hc         1 WO9       0.036700
     99 H56        174.5180   175.9260   172.9960 hc         1 WO9       0.036700
    100 H57        173.3260   174.7120   171.0930 hc         1 WO9       0.036700
    101 H58        174.6020   173.5150   171.1250 hc         1 WO9       0.036700
    102 H59        172.7290   174.1960   173.4380 hc         1 WO9       0.036700
    103 H60        174.0480   173.0510   173.5510 hc         1 WO9       0.036700
    104 H61        173.0160   171.6430   171.7900 hc         1 WO9       0.036700
    105 H62        171.7190   172.8000   171.5940 hc         1 WO9       0.036700
    106 H63        170.9850   170.8960   173.0310 hc         1 WO9       0.030367
    107 H64        172.2910   171.2260   174.1640 hc         1 WO9       0.030367
    108 H65        170.9850   172.3890   173.9650 hc         1 WO9       0.030367
    109 H66        177.9960   186.3010   171.7830 hn         1 WO9       0.382500
    110 H67        178.0550   185.4640   170.4050 hn         1 WO9       0.382500
    111 C33        180.5500   181.5300   169.3070 c          1 WO9       0.600100
@<TRIPOS>BOND
     1     1     2 1   
     2     1    44 1   
     3     1    45 1   
     4     1    46 1   
     5     2     3 1   
     6     2    47 1   
     7     2    48 1   
     8     3     4 1   
     9     3    49 1   
    10     3    50 1   
    11     4     5 1   
    12     4    51 1   
    13     4    52 1   
    14     5     6 1   
    15     5    53 1   
    16     5    54 1   
    17     6     7 1   
    18     6    55 1   
    19     6    56 1   
    20     7     8 1   
    21     7    57 1   
    22     7    58 1   
    23     8     9 1   
    24     8    59 1   
    25     8    60 1   
    26     9    10 1   
    27     9    61 1   
    28     9    62 1   
    29    10    11 1   
    30    10    63 1   
    31    10    64 1   
    32    11    12 1   
    33    11    65 1   
    34    11    66 1   
    35    12    13 1   
    36    12    67 1   
    37    12    68 1   
    38    13    14 1   
    39    13    69 1   
    40    13    70 1   
    41    14    15 1   
    42    14    71 1   
    43    14    72 1   
    44    15    16 1   
    45    15    73 1   
    46    15    74 1   
    47    16    17 1   
    48    16    75 1   
    49    16    76 1   
    50    17    35 2   
    51    17    36 1   
    52    18    19 1   
    53    18    36 1   
    54    18    77 1   
    55    18    78 1   
    56    19    20 1   
    57    19    41 1   
    58    19    79 1   
    59    20    37 1   
    60    20    80 1   
    61    20    81 1   
    62    21    22 1   
    63    21    40 1   
    64    21    82 1   
    65    21    83 1   
    66    22    34 1   
    67    22    84 1   
    68    22    85 1   
    69    23    24 1   
    70    23    86 1   
    71    23    87 1   
    72    23   111 1   
    73    24    25 1   
    74    24    88 1   
    75    24    89 1   
    76    25    26 1   
    77    25    90 1   
    78    25    91 1   
    79    26    27 1   
    80    26    92 1   
    81    26    93 1   
    82    27    28 1   
    83    27    94 1   
    84    27    95 1   
    85    28    29 1   
    86    28    96 1   
    87    28    97 1   
    88    29    30 1   
    89    29    98 1   
    90    29    99 1   
    91    30    31 1   
    92    30   100 1   
    93    30   101 1   
    94    31    32 1   
    95    31   102 1   
    96    31   103 1   
    97    32    33 1   
    98    32   104 1   
    99    32   105 1   
   100    33   106 1   
   101    33   107 1   
   102    33   108 1   
   103    34   109 1   
   104    34   110 1   
   105    37    43 1   
   106    38    43 1   
   107    39    43 1   
   108    40    43 1   
   109    41   111 1   
   110    42   111 2   
@<TRIPOS>SUBSTRUCTURE
     1 WO9         1 TEMP              0 ****  ****    0 ROOT
