@<TRIPOS>MOLECULE
WO9
  111   110     1     0     0
SMALL
No Charge or Current Charge


@<TRIPOS>ATOM
      1 C02        173.1030   166.8570   179.1100 c3         1 WO9      -0.088100
      2 C03        172.9850   167.0610   177.5880 c3         1 WO9      -0.074400
      3 C04        173.8830   168.2000   177.0580 c3         1 WO9      -0.076400
      4 C05        173.7630   168.4050   175.5330 c3         1 WO9      -0.073400
      5 C06        174.6580   169.5480   175.0060 c3         1 WO9      -0.076400
      6 C07        174.5240   169.7680   173.4840 c3         1 WO9      -0.073400
      7 C08        175.3560   170.9640   172.9710 c3         1 WO9      -0.080400
      8 C09        175.2620   171.1540   171.4390 c3         1 WO9      -0.070400
      9 C10        175.9120   172.4540   170.9080 c3         1 WO9      -0.072400
     10 C11        177.4250   172.5880   171.1980 c3         1 WO9      -0.075400
     11 C12        178.0500   173.8450   170.5550 c3         1 WO9      -0.076400
     12 C13        179.5450   174.0210   170.8940 c3         1 WO9      -0.075400
     13 C14        180.1610   175.2900   170.2650 c3         1 WO9      -0.074400
     14 C15        181.6450   175.4910   170.6410 c3         1 WO9      -0.077400
     15 C16        182.2400   176.7930   170.0620 c3         1 WO9      -0.067400
     16 C17        183.7090   177.0310   170.4840 c3         1 WO9      -0.141400
     17 C18        184.1840   178.4140   170.0370 c          1 WO9       0.593100
     18 C21        184.1590   180.7590   170.6870 c3         1 WO9       0.157600
     19 C22        183.1060   181.2810   169.6700 c3         1 WO9       0.132300
     20 C23        183.3530   182.7770   169.3290 c3         1 WO9       0.219600
     21 C29        179.6430   184.2540   168.9800 c3         1 WO9       0.229600
     22 C30        178.7690   185.3510   168.2960 c3         1 WO9       0.116800
     23 C35        179.4170   180.8390   170.3190 c3         1 WO9      -0.142400
     24 C36        179.0850   179.3880   170.7400 c3         1 WO9      -0.073400
     25 C37        177.7610   179.2720   171.5250 c3         1 WO9      -0.075400
     26 C38        177.3880   177.8110   171.8590 c3         1 WO9      -0.076400
     27 C39        176.0810   177.6860   172.6720 c3         1 WO9      -0.074400
     28 C40        175.6920   176.2190   172.9540 c3         1 WO9      -0.075400
     29 C41        174.4030   176.0760   173.7930 c3         1 WO9      -0.074400
     30 C42        174.0410   174.6030   174.0780 c3         1 WO9      -0.075400
     31 C43        172.7490   174.4340   174.9050 c3         1 WO9      -0.076400
     32 C44        172.4350   172.9560   175.2240 c3         1 WO9      -0.076400
     33 C45        171.1280   172.7690   176.0160 c3         1 WO9      -0.089100
     34 N31        177.3400   184.9620   168.1340 n8         1 WO9      -1.013200
     35 O19        184.6760   178.6410   168.9410 o          1 WO9      -0.486000
     36 O20        183.9120   179.3660   170.9860 os         1 WO9      -0.440100
     37 O24        182.5240   183.1680   168.2270 os         1 WO9      -0.584400
     38 O26        183.2450   185.6150   168.4190 o          1 WO9      -0.810500
     39 O27        181.5560   185.0080   166.7270 o          1 WO9      -0.810500
     40 O28        180.9650   184.7580   169.2250 os         1 WO9      -0.602400
     41 O32        181.8000   181.1430   170.2880 os         1 WO9      -0.452100
     42 O34        180.7490   180.6440   168.3010 o          1 WO9      -0.458000
     43 P25        182.1040   184.7150   168.0830 p5         1 WO9       1.391800
     44 H1         172.4490   166.0410   179.4390 hc         1 WO9       0.030700
     45 H2         174.1330   166.6050   179.3900 hc         1 WO9       0.030700
     46 H3         172.8110   167.7680   179.6470 hc         1 WO9       0.030700
     47 H4         171.9390   167.2770   177.3370 hc         1 WO9       0.035200
     48 H5         173.2490   166.1240   177.0810 hc         1 WO9       0.035200
     49 H6         174.9280   167.9820   177.3120 hc         1 WO9       0.037700
     50 H7         173.6180   169.1340   177.5690 hc         1 WO9       0.037700
     51 H8         172.7180   168.6220   175.2810 hc         1 WO9       0.036200
     52 H9         174.0310   167.4730   175.0200 hc         1 WO9       0.036200
     53 H10        175.7050   169.3290   175.2480 hc         1 WO9       0.038200
     54 H11        174.3980   170.4750   175.5300 hc         1 WO9       0.038200
     55 H12        173.4690   169.9350   173.2350 hc         1 WO9       0.035200
     56 H13        174.8380   168.8570   172.9590 hc         1 WO9       0.035200
     57 H14        176.4050   170.8160   173.2570 hc         1 WO9       0.041200
     58 H15        175.0130   171.8760   173.4730 hc         1 WO9       0.041200
     59 H16        174.2040   171.1590   171.1470 hc         1 WO9       0.035200
     60 H17        175.7200   170.2910   170.9400 hc         1 WO9       0.035200
     61 H18        175.3870   173.3170   171.3330 hc         1 WO9       0.037200
     62 H19        175.7540   172.4980   169.8230 hc         1 WO9       0.037200
     63 H20        177.9470   171.6960   170.8280 hc         1 WO9       0.037200
     64 H21        177.5860   172.6300   172.2820 hc         1 WO9       0.037200
     65 H22        177.5010   174.7320   170.8930 hc         1 WO9       0.037700
     66 H23        177.9300   173.7920   169.4650 hc         1 WO9       0.037700
     67 H24        180.1010   173.1400   170.5490 hc         1 WO9       0.036700
     68 H25        179.6620   174.0680   171.9840 hc         1 WO9       0.036700
     69 H26        179.5880   176.1660   170.5900 hc         1 WO9       0.040200
     70 H27        180.0690   175.2350   169.1730 hc         1 WO9       0.040200
     71 H28        182.2300   174.6340   170.2850 hc         1 WO9       0.036200
     72 H29        181.7360   175.5110   171.7350 hc         1 WO9       0.036200
     73 H30        182.1740   176.7710   168.9670 hc         1 WO9       0.053700
     74 H31        181.6320   177.6410   170.3990 hc         1 WO9       0.053700
     75 H32        183.7460   176.9840   171.5790 hc         1 WO9       0.069200
     76 H33        184.3450   176.2580   170.0380 hc         1 WO9       0.069200
     77 H34        185.1710   180.8990   170.2830 h1         1 WO9       0.061200
     78 H35        184.0850   181.3560   171.6050 h1         1 WO9       0.061200
     79 H36        183.1900   180.6930   168.7480 h1         1 WO9       0.093700
     80 H37        184.4100   182.9130   169.0640 h1         1 WO9       0.029200
     81 H38        183.1490   183.3850   170.2210 h1         1 WO9       0.029200
     82 H39        179.6760   183.3630   168.3390 h1         1 WO9       0.023700
     83 H40        179.1780   183.9640   169.9310 h1         1 WO9       0.023700
     84 H41        179.1700   185.5920   167.3040 h1         1 WO9       0.039700
     85 H42        178.8070   186.2630   168.9080 h1         1 WO9       0.039700
     86 H43        178.5920   181.2310   169.7150 hc         1 WO9       0.071700
     87 H44        179.5420   181.4360   171.2310 hc         1 WO9       0.071700
     88 H45        179.9030   178.9950   171.3560 hc         1 WO9       0.052200
     89 H46        179.0280   178.7590   169.8420 hc         1 WO9       0.052200
     90 H47        176.9500   179.7220   170.9370 hc         1 WO9       0.036200
     91 H48        177.8410   179.8490   172.4550 hc         1 WO9       0.036200
     92 H49        178.2070   177.3480   172.4230 hc         1 WO9       0.038700
     93 H50        177.2820   177.2490   170.9230 hc         1 WO9       0.038700
     94 H51        175.2650   178.1750   172.1250 hc         1 WO9       0.036200
     95 H52        176.1960   178.2190   173.6240 hc         1 WO9       0.036200
     96 H53        176.5190   175.7190   173.4740 hc         1 WO9       0.037700
     97 H54        175.5520   175.6990   171.9990 hc         1 WO9       0.037700
     98 H55        174.5310   176.6070   174.7450 hc         1 WO9       0.036700
     99 H56        173.5720   176.5580   173.2640 hc         1 WO9       0.036700
    100 H57        173.9220   174.0740   173.1250 hc         1 WO9       0.036700
    101 H58        174.8740   174.1270   174.6100 hc         1 WO9       0.036700
    102 H59        171.9080   174.8730   174.3540 hc         1 WO9       0.036700
    103 H60        172.8450   174.9930   175.8450 hc         1 WO9       0.036700
    104 H61        173.2630   172.5330   175.8050 hc         1 WO9       0.036700
    105 H62        172.3720   172.3850   174.2900 hc         1 WO9       0.036700
    106 H63        170.9560   171.7060   176.2220 hc         1 WO9       0.030367
    107 H64        171.1750   173.3010   176.9740 hc         1 WO9       0.030367
    108 H65        170.2720   173.1520   175.4480 hc         1 WO9       0.030367
    109 H66        176.8370   185.7230   167.6610 hn         1 WO9       0.382500
    110 H67        177.2760   184.1810   167.4690 hn         1 WO9       0.382500
    111 C33        180.7060   180.9030   169.4960 c          1 WO9       0.600100
@<TRIPOS>BOND
     1     1     2 1   
     2     1    44 1   
     3     1    45 1   
     4     1    46 1   
     5     2     3 1   
     6     2    47 1   
     7     2    48 1   
     8     3     4 1   
     9     3    49 1   
    10     3    50 1   
    11     4     5 1   
    12     4    51 1   
    13     4    52 1   
    14     5     6 1   
    15     5    53 1   
    16     5    54 1   
    17     6     7 1   
    18     6    55 1   
    19     6    56 1   
    20     7     8 1   
    21     7    57 1   
    22     7    58 1   
    23     8     9 1   
    24     8    59 1   
    25     8    60 1   
    26     9    10 1   
    27     9    61 1   
    28     9    62 1   
    29    10    11 1   
    30    10    63 1   
    31    10    64 1   
    32    11    12 1   
    33    11    65 1   
    34    11    66 1   
    35    12    13 1   
    36    12    67 1   
    37    12    68 1   
    38    13    14 1   
    39    13    69 1   
    40    13    70 1   
    41    14    15 1   
    42    14    71 1   
    43    14    72 1   
    44    15    16 1   
    45    15    73 1   
    46    15    74 1   
    47    16    17 1   
    48    16    75 1   
    49    16    76 1   
    50    17    35 2   
    51    17    36 1   
    52    18    19 1   
    53    18    36 1   
    54    18    77 1   
    55    18    78 1   
    56    19    20 1   
    57    19    41 1   
    58    19    79 1   
    59    20    37 1   
    60    20    80 1   
    61    20    81 1   
    62    21    22 1   
    63    21    40 1   
    64    21    82 1   
    65    21    83 1   
    66    22    34 1   
    67    22    84 1   
    68    22    85 1   
    69    23    24 1   
    70    23    86 1   
    71    23    87 1   
    72    23   111 1   
    73    24    25 1   
    74    24    88 1   
    75    24    89 1   
    76    25    26 1   
    77    25    90 1   
    78    25    91 1   
    79    26    27 1   
    80    26    92 1   
    81    26    93 1   
    82    27    28 1   
    83    27    94 1   
    84    27    95 1   
    85    28    29 1   
    86    28    96 1   
    87    28    97 1   
    88    29    30 1   
    89    29    98 1   
    90    29    99 1   
    91    30    31 1   
    92    30   100 1   
    93    30   101 1   
    94    31    32 1   
    95    31   102 1   
    96    31   103 1   
    97    32    33 1   
    98    32   104 1   
    99    32   105 1   
   100    33   106 1   
   101    33   107 1   
   102    33   108 1   
   103    34   109 1   
   104    34   110 1   
   105    37    43 1   
   106    38    43 1   
   107    39    43 1   
   108    40    43 1   
   109    41   111 1   
   110    42   111 2   
@<TRIPOS>SUBSTRUCTURE
     1 WO9         1 TEMP              0 ****  ****    0 ROOT
