@<TRIPOS>MOLECULE
WOA
   31    32     1     0     0
SMALL
bcc


@<TRIPOS>ATOM
      1 C10        -28.8220    -7.6500   -20.3120 ca         1 WOA       0.041600
      2 C13        -26.2250    -7.6260   -21.2930 ca         1 WOA      -0.125000
      3 C15        -28.4340    -6.6740   -21.2210 ca         1 WOA      -0.118000
      4 C01        -33.3990    -5.6880   -16.8270 c3         1 WOA       0.146100
      5 C03        -31.9130    -6.9630   -18.2500 c6         1 WOA       0.103500
      6 C04        -32.9070    -7.3980   -19.3160 c6         1 WOA      -0.073400
      7 C05        -32.4200    -8.6860   -19.9510 c6         1 WOA      -0.094400
      8 C06        -31.1030    -8.4470   -20.6590 c6         1 WOA       0.117000
      9 C08        -30.4780    -6.9240   -18.7670 c          1 WOA       0.712500
     10 C11        -27.9160    -8.6170   -19.8970 ca         1 WOA      -0.118000
     11 C12        -26.6170    -8.6030   -20.3880 ca         1 WOA      -0.124500
     12 C14        -27.1350    -6.6630   -21.7090 ca         1 WOA      -0.124500
     13 N02        -32.2360    -5.6660   -17.6920 n7         1 WOA      -0.802200
     14 N07        -30.1630    -7.6890   -19.8360 n          1 WOA      -0.406000
     15 H1         -25.2120    -7.6160   -21.6740 ha         1 WOA       0.131000
     16 H2         -29.1470    -5.9270   -21.5450 ha         1 WOA       0.138000
     17 H3         -33.4750    -4.7340   -16.3070 h1         1 WOA       0.029367
     18 H4         -34.3170    -5.8140   -17.4030 h1         1 WOA       0.029367
     19 H5         -33.3740    -6.4850   -16.0700 h1         1 WOA       0.029367
     20 H6         -31.9070    -7.7490   -17.4690 h1         1 WOA       0.037700
     21 H7         -33.0040    -6.6110   -20.0720 hc         1 WOA       0.058200
     22 H8         -33.8940    -7.5400   -18.8730 hc         1 WOA       0.058200
     23 H9         -33.1370    -9.0690   -20.6780 hc         1 WOA       0.053200
     24 H10        -32.3000    -9.4570   -19.1850 hc         1 WOA       0.053200
     25 H11        -30.6320    -9.3960   -20.9210 h1         1 WOA       0.044700
     26 H12        -31.2740    -7.9040   -21.5940 h1         1 WOA       0.044700
     27 H13        -28.2270    -9.3790   -19.1930 ha         1 WOA       0.138000
     28 H14        -25.9120    -9.3550   -20.0600 ha         1 WOA       0.132500
     29 H15        -26.8340    -5.8980   -22.4140 ha         1 WOA       0.132500
     30 H16        -31.4400    -5.3420   -17.1590 hn         1 WOA       0.384800
     31 O09        -29.6330    -6.2520   -18.1940 o          1 WOA      -0.630500
@<TRIPOS>BOND
     1     1     3 ar  
     2     1    10 ar  
     3     1    14 1   
     4     2    11 ar  
     5     2    12 ar  
     6     2    15 1   
     7     3    12 ar  
     8     3    16 1   
     9     4    13 1   
    10     4    17 1   
    11     4    18 1   
    12     4    19 1   
    13     5     6 1   
    14     5     9 1   
    15     5    13 1   
    16     5    20 1   
    17     6     7 1   
    18     6    21 1   
    19     6    22 1   
    20     7     8 1   
    21     7    23 1   
    22     7    24 1   
    23     8    14 1   
    24     8    25 1   
    25     8    26 1   
    26     9    14 1   
    27     9    31 2   
    28    10    11 ar  
    29    10    27 1   
    30    11    28 1   
    31    12    29 1   
    32    13    30 1   
@<TRIPOS>SUBSTRUCTURE
     1 WOA         1 TEMP              0 ****  ****    0 ROOT
