@<TRIPOS>MOLECULE
WOA
   31    32     1     0     0
SMALL
No Charge or Current Charge


@<TRIPOS>ATOM
      1 C10        -28.7720    -7.7800   -20.4420 ca         1 WOA      -0.051000
      2 C13        -26.0670    -7.8170   -21.2890 ca         1 WOA      -0.107000
      3 C15        -28.4080    -7.3140   -21.7270 ca         1 WOA      -0.100000
      4 C01        -33.5050    -5.8730   -16.5360 c3         1 WOA       0.146100
      5 C03        -31.9270    -7.0390   -18.1640 c6         1 WOA       0.103500
      6 C04        -32.9930    -7.3690   -19.2410 c6         1 WOA      -0.073400
      7 C05        -32.4770    -8.4170   -20.2380 c6         1 WOA      -0.094400
      8 C06        -31.2110    -7.8880   -20.9290 c6         1 WOA       0.117000
      9 C08        -30.4390    -6.9970   -18.7040 c          1 WOA       0.570000
     10 C11        -27.7410    -8.1680   -19.5580 ca         1 WOA      -0.100000
     11 C12        -26.4030    -8.2120   -19.9850 ca         1 WOA      -0.106500
     12 C14        -27.0690    -7.3560   -22.1550 ca         1 WOA      -0.106500
     13 N02        -32.3040    -5.8040   -17.3950 n7         1 WOA      -0.857400
     14 N07        -30.1250    -7.5850   -19.9660 n          1 WOA      -0.246400
     15 H1         -25.0300    -7.8460   -21.6190 ha         1 WOA       0.113000
     16 H2         -29.1600    -6.9170   -22.4050 ha         1 WOA       0.120000
     17 H3         -33.6580    -4.9200   -16.0130 h1         1 WOA       0.029367
     18 H4         -34.4060    -6.0790   -17.1290 h1         1 WOA       0.029367
     19 H5         -33.4010    -6.6630   -15.7810 h1         1 WOA       0.029367
     20 H6         -31.9150    -7.8850   -17.4610 h1         1 WOA       0.037700
     21 H7         -33.2640    -6.4540   -19.7870 hc         1 WOA       0.058200
     22 H8         -33.9140    -7.7330   -18.7650 hc         1 WOA       0.058200
     23 H9         -33.2480    -8.6330   -20.9900 hc         1 WOA       0.053200
     24 H10        -32.2600    -9.3630   -19.7230 hc         1 WOA       0.053200
     25 H11        -30.8610    -8.6400   -21.6500 h1         1 WOA       0.044700
     26 H12        -31.4520    -6.9750   -21.4930 h1         1 WOA       0.044700
     27 H13        -27.9770    -8.4690   -18.5400 ha         1 WOA       0.120000
     28 H14        -25.6250    -8.5450   -19.3010 ha         1 WOA       0.114500
     29 H15        -26.8090    -7.0180   -23.1560 ha         1 WOA       0.114500
     30 H16        -31.5030    -5.5550   -16.7950 hn         1 WOA       0.440000
     31 O09        -29.5640    -6.5050   -17.9940 o          1 WOA      -0.555000
@<TRIPOS>BOND
     1     1     3 ar  
     2     1    10 ar  
     3     1    14 1   
     4     2    11 ar  
     5     2    12 ar  
     6     2    15 1   
     7     3    12 ar  
     8     3    16 1   
     9     4    13 1   
    10     4    17 1   
    11     4    18 1   
    12     4    19 1   
    13     5     6 1   
    14     5     9 1   
    15     5    13 1   
    16     5    20 1   
    17     6     7 1   
    18     6    21 1   
    19     6    22 1   
    20     7     8 1   
    21     7    23 1   
    22     7    24 1   
    23     8    14 1   
    24     8    25 1   
    25     8    26 1   
    26     9    14 1   
    27     9    31 2   
    28    10    11 ar  
    29    10    27 1   
    30    11    28 1   
    31    12    29 1   
    32    13    30 1   
@<TRIPOS>SUBSTRUCTURE
     1 WOA         1 TEMP              0 ****  ****    0 ROOT
