@<TRIPOS>MOLECULE
WOC
   18    17     1     0     0
SMALL
bcc


@<TRIPOS>ATOM
      1 OAG         -2.9680    -1.2600    -0.0200 o          1 WOC      -0.885800
      2 CAJ         -2.1560    -0.3070    -0.0260 c          1 WOC       0.916600
      3 CAK         -0.6740    -0.7340    -0.0090 c3         1 WOC      -0.169400
      4 CAL          0.4470     0.3070     0.0070 c3         1 WOC      -0.145000
      5 OAM         -2.4740     0.9000    -0.0440 o          1 WOC      -0.885800
      6 CAN          1.8430    -0.3870     0.0030 c          1 WOC       0.920600
      7 OAO          2.8350     0.3670     0.1130 o          1 WOC      -0.874300
      8 OAP          1.8970    -1.6280    -0.1200 o          1 WOC      -0.874300
      9 CAQ          0.3840     1.1990    -1.2370 c3         1 WOC      -0.052100
     10 CAR          0.3530     1.1800     1.2620 c3         1 WOC      -0.052100
     11 HAK         -0.5500    -1.3970     0.8550 hc         1 WOC       0.026200
     12 HAKA        -0.5290    -1.3930    -0.8720 hc         1 WOC       0.026200
     13 HAQ         -0.5520     1.7550    -1.2620 hc         1 WOC       0.008533
     14 HAQA         1.2110     1.9100    -1.2460 hc         1 WOC       0.008533
     15 HAQB         0.4440     0.6060    -2.1550 hc         1 WOC       0.008533
     16 HAR          0.4110     0.5750     2.1730 hc         1 WOC       0.008533
     17 HARA         1.1650     1.9070     1.2960 hc         1 WOC       0.008533
     18 HARB        -0.5940     1.7160     1.2830 hc         1 WOC       0.008533
@<TRIPOS>BOND
     1     1     2 1   
     2     2     3 1   
     3     2     5 1   
     4     3     4 1   
     5     3    11 1   
     6     3    12 1   
     7     4     6 1   
     8     4     9 1   
     9     4    10 1   
    10     6     7 1   
    11     6     8 1   
    12     9    13 1   
    13     9    14 1   
    14     9    15 1   
    15    10    16 1   
    16    10    17 1   
    17    10    18 1   
@<TRIPOS>SUBSTRUCTURE
     1 WOC         1 TEMP              0 ****  ****    0 ROOT
