@<TRIPOS>MOLECULE
WOC
   18    17     1     0     0
SMALL
No Charge or Current Charge


@<TRIPOS>ATOM
      1 OAG         -2.6760    -0.1660     1.0120 o          1 WOC      -0.780500
      2 CAJ         -2.1130    -0.2630    -0.0680 c          1 WOC       0.706000
      3 CAK         -0.6670    -0.8160    -0.1030 c3         1 WOC      -0.169400
      4 CAL          0.4580     0.2800     0.0030 c3         1 WOC      -0.145000
      5 OAM         -2.6560     0.0190    -1.1270 o          1 WOC      -0.780500
      6 CAN          1.8460    -0.4630    -0.0490 c          1 WOC       0.710000
      7 OAO          2.3870    -0.7850     1.0000 o          1 WOC      -0.769000
      8 OAP          2.4080    -0.6000    -1.1270 o          1 WOC      -0.769000
      9 CAQ          0.3480     1.2970    -1.1750 c3         1 WOC      -0.052100
     10 CAR          0.3240     1.0800     1.3360 c3         1 WOC      -0.052100
     11 HAK         -0.5120    -1.4770     0.7590 hc         1 WOC       0.026200
     12 HAKA        -0.4940    -1.3190    -1.0620 hc         1 WOC       0.026200
     13 HAQ         -0.5700     1.8930    -1.1030 hc         1 WOC       0.008533
     14 HAQA         1.1940     1.9950    -1.1640 hc         1 WOC       0.008533
     15 HAQB         0.3400     0.7870    -2.1460 hc         1 WOC       0.008533
     16 HAR          0.2990     0.4100     2.2040 hc         1 WOC       0.008533
     17 HARA         1.1700     1.7680     1.4600 hc         1 WOC       0.008533
     18 HARB        -0.5930     1.6800     1.3510 hc         1 WOC       0.008533
@<TRIPOS>BOND
     1     1     2 1   
     2     2     3 1   
     3     2     5 1   
     4     3     4 1   
     5     3    11 1   
     6     3    12 1   
     7     4     6 1   
     8     4     9 1   
     9     4    10 1   
    10     6     7 1   
    11     6     8 1   
    12     9    13 1   
    13     9    14 1   
    14     9    15 1   
    15    10    16 1   
    16    10    17 1   
    17    10    18 1   
@<TRIPOS>SUBSTRUCTURE
     1 WOC         1 TEMP              0 ****  ****    0 ROOT
