@<TRIPOS>MOLECULE
WOD
   26    28     1     0     0
SMALL
bcc


@<TRIPOS>ATOM
      1 C10        -29.5980    31.9490   -23.5420 c5         1 WOD      -0.102400
      2 N12        -28.2550    31.5940   -25.5360 n7         1 WOD      -0.769200
      3 C13        -29.5430    30.9700   -25.7500 c5         1 WOD       0.147800
      4 C01        -35.1000    32.0530   -26.2210 cx         1 WOD      -0.103400
      5 C02        -35.1470    32.8340   -24.9570 cx         1 WOD      -0.103400
      6 C03        -34.9610    31.3400   -24.9010 cx         1 WOD      -0.188000
      7 C04        -33.6540    30.8020   -24.5260 cc         1 WOD       0.593300
      8 C07        -31.5940    30.6060   -24.3230 cd         1 WOD       0.545700
      9 C09        -30.1200    30.7310   -24.3360 c5         1 WOD      -0.148000
     10 C11        -28.4700    32.5270   -24.4350 c5         1 WOD       0.137800
     11 N05        -33.5150    29.6860   -23.8760 nd         1 WOD      -0.375300
     12 N08        -32.4700    31.4120   -24.8260 nc         1 WOD      -0.727000
     13 O06        -32.1530    29.5540   -23.7420 os         1 WOD      -0.137100
     14 H1         -30.3840    32.6870   -23.3800 hc         1 WOD       0.060200
     15 H2         -29.2330    31.6420   -22.5630 hc         1 WOD       0.060200
     16 H3         -27.5980    30.8820   -25.2400 hn         1 WOD       0.346800
     17 H5         -30.1960    31.6510   -26.3030 h1         1 WOD       0.071700
     18 H6         -29.4500    30.0490   -26.3260 h1         1 WOD       0.071700
     19 H8         -34.2160    32.1320   -26.8400 hc         1 WOD       0.080950
     20 H9         -34.2940    33.4520   -24.7070 hc         1 WOD       0.080950
     21 H10        -36.1000    33.2170   -24.6180 hc         1 WOD       0.080950
     22 H11        -35.8020    30.7470   -24.5670 hc         1 WOD       0.103700
     23 H12        -29.6910    29.8130   -23.9300 hc         1 WOD       0.075700
     24 H13        -27.5410    32.6870   -23.8890 h1         1 WOD       0.058700
     25 H14        -28.7820    33.4930   -24.8370 h1         1 WOD       0.058700
     26 H7         -36.0210    31.8910   -26.7650 hc         1 WOD       0.080950
@<TRIPOS>BOND
     1     1     9 1   
     2     1    10 1   
     3     1    14 1   
     4     1    15 1   
     5     2     3 1   
     6     2    10 1   
     7     2    16 1   
     8     3     9 1   
     9     3    17 1   
    10     3    18 1   
    11     4     5 1   
    12     4     6 1   
    13     4    19 1   
    14     4    26 1   
    15     5     6 1   
    16     5    20 1   
    17     5    21 1   
    18     6     7 1   
    19     6    22 1   
    20     7    11 2   
    21     7    12 1   
    22     8     9 1   
    23     8    12 2   
    24     8    13 1   
    25     9    23 1   
    26    10    24 1   
    27    10    25 1   
    28    11    13 1   
@<TRIPOS>SUBSTRUCTURE
     1 WOD         1 TEMP              0 ****  ****    0 ROOT
