@<TRIPOS>MOLECULE
WOD
   26    28     1     0     0
SMALL
No Charge or Current Charge


@<TRIPOS>ATOM
      1 C10        -29.6240    32.0100   -23.5860 c5         1 WOD      -0.102400
      2 N12        -28.2430    31.5380   -25.5320 n7         1 WOD      -0.824400
      3 C13        -29.6230    31.0720   -25.7860 c5         1 WOD       0.147800
      4 C01        -35.0910    32.0230   -26.2410 cx         1 WOD      -0.103400
      5 C02        -35.1430    32.8210   -24.9570 cx         1 WOD      -0.103400
      6 C03        -34.9450    31.3180   -24.9060 cx         1 WOD      -0.188000
      7 C04        -33.6500    30.7340   -24.4870 cc         1 WOD       0.593300
      8 C07        -31.5800    30.5310   -24.2860 cd         1 WOD       0.501300
      9 C09        -30.0770    30.7280   -24.3520 c5         1 WOD      -0.148000
     10 C11        -28.3860    32.4950   -24.4030 c5         1 WOD       0.137800
     11 N05        -33.5420    29.6290   -23.7700 nd         1 WOD      -0.375300
     12 N08        -32.4720    31.3300   -24.8310 nc         1 WOD      -0.727000
     13 O06        -32.1470    29.4820   -23.6270 os         1 WOD      -0.092700
     14 H1         -30.3990    32.7860   -23.5780 hc         1 WOD       0.060200
     15 H2         -29.3730    31.7970   -22.5400 hc         1 WOD       0.060200
     16 H3         -27.6980    30.7320   -25.2010 hn         1 WOD       0.402000
     17 H5         -30.2330    31.8710   -26.2360 h1         1 WOD       0.071700
     18 H6         -29.6530    30.2010   -26.4580 h1         1 WOD       0.071700
     19 H8         -34.2090    32.1340   -26.8680 hc         1 WOD       0.080950
     20 H9         -34.2970    33.4630   -24.7260 hc         1 WOD       0.080950
     21 H10        -36.1080    33.2160   -24.6450 hc         1 WOD       0.080950
     22 H11        -35.7920    30.7240   -24.5720 hc         1 WOD       0.103700
     23 H12        -29.5490    29.8410   -23.9820 hc         1 WOD       0.075700
     24 H13        -27.4730    32.5290   -23.7910 h1         1 WOD       0.058700
     25 H14        -28.5630    33.5120   -24.7830 h1         1 WOD       0.058700
     26 H7         -36.0200    31.8840   -26.7890 hc         1 WOD       0.080950
@<TRIPOS>BOND
     1     1     9 1   
     2     1    10 1   
     3     1    14 1   
     4     1    15 1   
     5     2     3 1   
     6     2    10 1   
     7     2    16 1   
     8     3     9 1   
     9     3    17 1   
    10     3    18 1   
    11     4     5 1   
    12     4     6 1   
    13     4    19 1   
    14     4    26 1   
    15     5     6 1   
    16     5    20 1   
    17     5    21 1   
    18     6     7 1   
    19     6    22 1   
    20     7    11 2   
    21     7    12 1   
    22     8     9 1   
    23     8    12 2   
    24     8    13 1   
    25     9    23 1   
    26    10    24 1   
    27    10    25 1   
    28    11    13 1   
@<TRIPOS>SUBSTRUCTURE
     1 WOD         1 TEMP              0 ****  ****    0 ROOT
