@<TRIPOS>MOLECULE
WOE
   26    27     1     0     0
SMALL
bcc


@<TRIPOS>ATOM
      1 C1           3.3040    -2.2330    -0.8650 c3         1 WOE       0.123700
      2 O2           2.1760    -1.4300    -0.5730 os         1 WOE      -0.298900
      3 C3           2.3710    -0.1790    -0.1290 ca         1 WOE       0.183100
      4 C4           3.6290     0.3940     0.0460 ca         1 WOE      -0.228000
      5 C5           3.7430     1.7110     0.4710 ca         1 WOE      -0.074000
      6 C6           2.6170     2.4780     0.7160 ca         1 WOE      -0.173000
      7 C7           1.3640     1.9090     0.5370 ca         1 WOE      -0.071000
      8 C8           1.2220     0.5860     0.1320 cp         1 WOE      -0.198500
      9 C9          -0.1360     0.0210    -0.0160 cp         1 WOE       0.574800
     10 C10         -1.0900     0.7030    -0.7710 ca         1 WOE      -0.420600
     11 C11         -2.3360     0.1070    -0.8070 ca         1 WOE       0.584300
     12 CL1         -3.6030     0.8670    -1.7110 cl         1 WOE      -0.169000
     13 N13         -2.6450    -1.0100    -0.2040 nb         1 WOE      -0.776000
     14 C14         -1.6550    -1.5880     0.4930 ca         1 WOE       0.926900
     15 N15         -1.9370    -2.7480     1.1040 nv         1 WOE      -0.954500
     16 N16         -0.4140    -1.1110     0.6120 nb         1 WOE      -0.760000
     17 H11C         3.9240    -2.4020     0.0180 h1         1 WOE       0.042033
     18 H12C         2.9170    -3.1890    -1.2100 h1         1 WOE       0.042033
     19 H13C         3.9220    -1.7980    -1.6540 h1         1 WOE       0.042033
     20 H4           4.5300    -0.1710    -0.1500 ha         1 WOE       0.137000
     21 H5           4.7300     2.1340     0.6060 ha         1 WOE       0.131000
     22 H6           2.7070     3.5040     1.0460 ha         1 WOE       0.137000
     23 H7           0.4740     2.4940     0.7340 ha         1 WOE       0.137000
     24 H10         -0.8680     1.6190    -1.2940 ha         1 WOE       0.167000
     25 H151        -2.8890    -3.0640     1.1590 hn         1 WOE       0.447300
     26 H152        -1.2740    -3.1400     1.7480 hn         1 WOE       0.447300
@<TRIPOS>BOND
     1     1     2 1   
     2     1    17 1   
     3     1    18 1   
     4     1    19 1   
     5     2     3 1   
     6     3     4 ar  
     7     3     8 ar  
     8     4     5 ar  
     9     4    20 1   
    10     5     6 ar  
    11     5    21 1   
    12     6     7 ar  
    13     6    22 1   
    14     7     8 ar  
    15     7    23 1   
    16     8     9 1   
    17     9    10 ar  
    18     9    16 ar  
    19    10    11 ar  
    20    10    24 1   
    21    11    12 1   
    22    11    13 ar  
    23    13    14 ar  
    24    14    15 1   
    25    14    16 ar  
    26    15    25 1   
    27    15    26 1   
@<TRIPOS>SUBSTRUCTURE
     1 WOE         1 TEMP              0 ****  ****    0 ROOT
