@<TRIPOS>MOLECULE
WOE
   26    27     1     0     0
SMALL
No Charge or Current Charge


@<TRIPOS>ATOM
      1 C1           3.3600    -2.3460    -0.7640 c3         1 WOE       0.146900
      2 O2           2.2430    -1.4780    -0.5060 os         1 WOE      -0.322100
      3 C3           2.3990    -0.1660    -0.1020 ca         1 WOE       0.183100
      4 C4           3.6770     0.4150     0.0570 ca         1 WOE      -0.210000
      5 C5           3.7990     1.7640     0.4260 ca         1 WOE      -0.056000
      6 C6           2.6490     2.5380     0.6310 ca         1 WOE      -0.155000
      7 C7           1.3770     1.9670     0.4740 ca         1 WOE      -0.053000
      8 C8           1.2200     0.6040     0.1130 cp         1 WOE      -0.198500
      9 C9          -0.1600     0.0400    -0.0340 cp         1 WOE       0.246500
     10 C10         -1.1960     0.7690    -0.6620 ca         1 WOE      -0.272000
     11 C11         -2.4700     0.1870    -0.7250 ca         1 WOE       0.256000
     12 Cl1         -3.8070     1.0240    -1.4960 cl         1 WOE      -0.169000
     13 N13         -2.7210    -1.0260    -0.2000 nb         1 WOE      -0.250000
     14 C14         -1.6780    -1.6330     0.3820 ca         1 WOE       0.400900
     15 N15         -1.9230    -2.8530     0.9220 nv         1 WOE      -1.064900
     16 N16         -0.4240    -1.1710     0.4980 nb         1 WOE      -0.234000
     17 H11C         3.9770    -2.4660     0.1350 h1         1 WOE       0.042033
     18 H12C         3.0060    -3.3400    -1.0670 h1         1 WOE       0.042033
     19 H13C         3.9850    -1.9470    -1.5730 h1         1 WOE       0.042033
     20 H4           4.5840    -0.1590    -0.1060 ha         1 WOE       0.119000
     21 H5           4.7850     2.2100     0.5470 ha         1 WOE       0.113000
     22 H6           2.7430     3.5840     0.9150 ha         1 WOE       0.119000
     23 H7           0.4990     2.5860     0.6500 ha         1 WOE       0.119000
     24 H10         -1.0140     1.7490    -1.0930 ha         1 WOE       0.149000
     25 H151        -2.8910    -3.1380     1.0570 hn         1 WOE       0.502500
     26 H152        -1.2360    -3.2530     1.5580 hn         1 WOE       0.502500
@<TRIPOS>BOND
     1     1     2 1   
     2     1    17 1   
     3     1    18 1   
     4     1    19 1   
     5     2     3 1   
     6     3     4 ar  
     7     3     8 ar  
     8     4     5 ar  
     9     4    20 1   
    10     5     6 ar  
    11     5    21 1   
    12     6     7 ar  
    13     6    22 1   
    14     7     8 ar  
    15     7    23 1   
    16     8     9 1   
    17     9    10 ar  
    18     9    16 ar  
    19    10    11 ar  
    20    10    24 1   
    21    11    12 1   
    22    11    13 ar  
    23    13    14 ar  
    24    14    15 1   
    25    14    16 ar  
    26    15    25 1   
    27    15    26 1   
@<TRIPOS>SUBSTRUCTURE
     1 WOE         1 TEMP              0 ****  ****    0 ROOT
