@<TRIPOS>MOLECULE
WOH
   56    56     1     0     0
SMALL
No Charge or Current Charge


@<TRIPOS>ATOM
      1 C1         -37.3390     6.5160    36.8140 c3         1 WOH       0.224900
      2 C10        -40.8760    11.3730    39.7970 c3         1 WOH      -0.091100
      3 C11        -41.0030    10.6340    42.2290 c3         1 WOH      -0.091100
      4 C12        -37.6840     8.5560    38.0440 c          1 WOH       0.626100
      5 C13        -34.1180    13.2750    41.6480 c3         1 WOH       0.053600
      6 C14        -37.8900    10.3560    39.7760 c3         1 WOH       0.053700
      7 C15        -36.3760    10.5890    40.0420 c          1 WOH       0.571100
      8 C19        -34.3630    11.8800    37.9900 c3         1 WOH       0.119000
      9 C2         -35.8060     6.5610    36.7940 ca         1 WOH      -0.112300
     10 C20        -33.7970    10.4890    37.6440 c3         1 WOH      -0.186400
     11 C24        -33.6870    10.3450    36.1330 c          1 WOH       0.608100
     12 C27        -33.7100    12.9130    40.2080 c          1 WOH       0.618100
     13 C3         -35.1270     6.5830    35.5590 ca         1 WOH      -0.099500
     14 C34        -38.7400    10.6270    41.0460 c3         1 WOH      -0.084400
     15 C4         -33.7220     6.6340    35.5180 ca         1 WOH      -0.114000
     16 C5         -32.9840     6.6650    36.7120 ca         1 WOH      -0.120000
     17 C6         -33.6510     6.6330    37.9480 ca         1 WOH      -0.114000
     18 C7         -35.0540     6.5750    37.9900 ca         1 WOH      -0.099500
     19 C9         -40.2760    10.4430    40.8790 c3         1 WOH      -0.059700
     20 N13        -38.0940     8.9830    39.2750 ns         1 WOH      -0.470900
     21 N17        -34.5980    12.1060    39.4410 n          1 WOH      -0.276400
     22 N23        -34.7820     9.8780    35.5030 nt         1 WOH      -0.608000
     23 O1         -32.6400    13.2980    39.7440 o          1 WOH      -0.567100
     24 O11        -37.8540     7.2070    37.9690 os         1 WOH      -0.451100
     25 O26        -32.6970    10.6680    35.5010 o          1 WOH      -0.622100
     26 O33        -37.2210     9.2760    37.1730 o          1 WOH      -0.537000
     27 O38        -35.5980     9.6840    40.3280 o          1 WOH      -0.588100
     28 H1         -37.7390     6.9560    35.8910 h1         1 WOH       0.076200
     29 H2         -37.6550     5.4650    36.8360 h1         1 WOH       0.076200
     30 H3         -41.9640    11.2460    39.7400 hc         1 WOH       0.038033
     31 H4         -40.6660    12.4250    40.0250 hc         1 WOH       0.038033
     32 H5         -40.4670    11.1440    38.8060 hc         1 WOH       0.038033
     33 H6         -40.6160     9.9360    42.9810 hc         1 WOH       0.038033
     34 H7         -40.8660    11.6550    42.6060 hc         1 WOH       0.038033
     35 H8         -42.0780    10.4490    42.1210 hc         1 WOH       0.038033
     36 Cl1        -35.2590    14.7040    41.7460 cl         1 WOH      -0.268000
     37 H10        -34.6020    12.4100    42.1150 h1         1 WOH       0.092200
     38 H11        -33.2140    13.5250    42.2140 h1         1 WOH       0.092200
     39 H12        -38.1870    11.0570    38.9850 h1         1 WOH       0.085700
     40 H13        -33.6860    12.6510    37.5980 h1         1 WOH       0.080200
     41 H14        -35.3190    12.0110    37.4640 h1         1 WOH       0.080200
     42 H15        -34.4980     9.7370    38.0170 hc         1 WOH       0.077700
     43 H16        -32.8110    10.3720    38.1070 hc         1 WOH       0.077700
     44 H17        -35.6870     6.5650    34.6260 ha         1 WOH       0.121500
     45 H18        -38.3880     9.9630    41.8460 hc         1 WOH       0.059700
     46 H19        -38.5430    11.6510    41.3900 hc         1 WOH       0.059700
     47 H20        -33.2070     6.6560    34.5600 ha         1 WOH       0.120000
     48 H21        -31.8970     6.7090    36.6800 ha         1 WOH       0.118000
     49 H22        -33.0810     6.6520    38.8740 ha         1 WOH       0.120000
     50 H23        -35.5550     6.5490    38.9550 ha         1 WOH       0.121500
     51 H24        -40.4640     9.4090    40.5620 hc         1 WOH       0.051700
     52 H25        -38.4330     8.2660    39.9040 hn         1 WOH       0.334500
     53 H26        -36.6460    12.6240    39.7100 hn         1 WOH       0.347500
     54 H27        -34.7660     9.7650    34.5020 hn         1 WOH       0.317000
     55 H28        -35.5990     9.6120    36.0400 hn         1 WOH       0.317000
     56 N16        -35.9570    11.9080    39.9290 ns         1 WOH      -0.365500
@<TRIPOS>BOND
     1     1     9 1   
     2     1    24 1   
     3     1    28 1   
     4     1    29 1   
     5     2    19 1   
     6     2    30 1   
     7     2    31 1   
     8     2    32 1   
     9     3    19 1   
    10     3    33 1   
    11     3    34 1   
    12     3    35 1   
    13     4    20 1   
    14     4    24 1   
    15     4    26 2   
    16     5    12 1   
    17     5    36 1   
    18     5    37 1   
    19     5    38 1   
    20     6     7 1   
    21     6    14 1   
    22     6    20 1   
    23     6    39 1   
    24     7    27 2   
    25     7    56 1   
    26     8    10 1   
    27     8    21 1   
    28     8    40 1   
    29     8    41 1   
    30     9    13 ar  
    31     9    18 ar  
    32    10    11 1   
    33    10    42 1   
    34    10    43 1   
    35    11    22 1   
    36    11    25 2   
    37    12    21 1   
    38    12    23 2   
    39    13    15 ar  
    40    13    44 1   
    41    14    19 1   
    42    14    45 1   
    43    14    46 1   
    44    15    16 ar  
    45    15    47 1   
    46    16    17 ar  
    47    16    48 1   
    48    17    18 ar  
    49    17    49 1   
    50    18    50 1   
    51    19    51 1   
    52    20    52 1   
    53    21    56 1   
    54    22    54 1   
    55    22    55 1   
    56    53    56 1   
@<TRIPOS>SUBSTRUCTURE
     1 WOH         1 TEMP              0 ****  ****    0 ROOT
