@<TRIPOS>MOLECULE
WOH
   56    56     1     0     0
SMALL
abcg2


@<TRIPOS>ATOM
      1 C1         -37.3190     6.8830    36.5940 c3         1 WOH       0.224900
      2 C10        -40.9030    11.4500    40.2520 c3         1 WOH      -0.091100
      3 C11        -40.6110    10.6050    42.6080 c3         1 WOH      -0.091100
      4 C12        -37.8200     8.7440    37.9750 c          1 WOH       0.626100
      5 C13        -34.8570    12.8060    41.6260 c3         1 WOH       0.053600
      6 C14        -38.0320    10.4450    39.6830 c3         1 WOH       0.053700
      7 C15        -36.5210    10.6980    39.7430 c          1 WOH       0.571100
      8 C19        -34.2480    12.2190    37.8780 c3         1 WOH       0.119000
      9 C2         -35.8280     6.6760    36.7000 ca         1 WOH      -0.112300
     10 C20        -34.1160    10.7820    37.3890 c3         1 WOH      -0.186400
     11 C24        -33.6560    10.7080    35.9450 c          1 WOH       0.608100
     12 C27        -34.1030    12.6730    40.3130 c          1 WOH       0.618100
     13 C3         -35.1640     6.0940    35.6170 ca         1 WOH      -0.099500
     14 C34        -38.6350    10.6420    41.0750 c3         1 WOH      -0.084400
     15 C4         -33.7930     5.8740    35.6620 ca         1 WOH      -0.114000
     16 C5         -33.0650     6.2340    36.7940 ca         1 WOH      -0.120000
     17 C6         -33.7200     6.8170    37.8730 ca         1 WOH      -0.114000
     18 C7         -35.0950     7.0360    37.8270 ca         1 WOH      -0.099500
     19 C9         -40.1570    10.4650    41.1540 c3         1 WOH      -0.059700
     20 N13        -38.2750     9.1010    39.1970 ns         1 WOH      -0.470900
     21 N17        -34.8220    12.2960    39.2220 n          1 WOH      -0.276400
     22 N23        -33.2710     9.4870    35.5330 nt         1 WOH      -0.608000
     23 O1         -32.9020    12.9000    40.2590 o          1 WOH      -0.567100
     24 O11        -37.9010     7.4070    37.7970 os         1 WOH      -0.451100
     25 O26        -33.6540    11.6870    35.1990 o          1 WOH      -0.622100
     26 O33        -37.3990     9.5240    37.1390 o          1 WOH      -0.537000
     27 O38        -35.7300     9.8670    40.1590 o          1 WOH      -0.588100
     28 H1         -37.5540     7.5420    35.7590 h1         1 WOH       0.076200
     29 H2         -37.8230     5.9300    36.4360 h1         1 WOH       0.076200
     30 H3         -41.9820    11.3290    40.3670 hc         1 WOH       0.038033
     31 H4         -40.6480    12.4810    40.5150 hc         1 WOH       0.038033
     32 H5         -40.6640    11.3010    39.1980 hc         1 WOH       0.038033
     33 H6         -40.0960     9.8900    43.2530 hc         1 WOH       0.038033
     34 H7         -40.3980    11.6110    42.9820 hc         1 WOH       0.038033
     35 H8         -41.6850    10.4330    42.6980 hc         1 WOH       0.038033
     36 CL1        -35.9470    14.2490    41.5900 cl         1 WOH      -0.268000
     37 H10        -35.4720    11.9430    41.8550 h1         1 WOH       0.092200
     38 H11        -34.1330    12.9770    42.4140 h1         1 WOH       0.092200
     39 H12        -38.4770    11.1500    38.9820 h1         1 WOH       0.085700
     40 H13        -33.2810    12.7120    37.9180 h1         1 WOH       0.080200
     41 H14        -34.8940    12.7870    37.2100 h1         1 WOH       0.080200
     42 H15        -35.0820    10.2750    37.4410 hc         1 WOH       0.077700
     43 H16        -33.4310    10.2190    38.0250 hc         1 WOH       0.077700
     44 H17        -35.7250     5.8130    34.7340 ha         1 WOH       0.121500
     45 H18        -38.1490     9.9420    41.7610 hc         1 WOH       0.059700
     46 H19        -38.3730    11.6500    41.4110 hc         1 WOH       0.059700
     47 H20        -33.2930     5.4240    34.8140 ha         1 WOH       0.120000
     48 H21        -31.9960     6.0660    36.8310 ha         1 WOH       0.118000
     49 H22        -33.1630     7.1090    38.7540 ha         1 WOH       0.120000
     50 H23        -35.5850     7.4940    38.6750 ha         1 WOH       0.121500
     51 H24        -40.4010     9.4500    40.8230 hc         1 WOH       0.051700
     52 H25        -38.4060     8.3630    39.8730 hn         1 WOH       0.334500
     53 H26        -36.8220    12.5880    38.9520 hn         1 WOH       0.347500
     54 H27        -33.0100     9.3460    34.5690 hn         1 WOH       0.317000
     55 H28        -33.3020     8.6840    36.1420 hn         1 WOH       0.317000
     56 N16        -36.1490    11.9420    39.3420 ns         1 WOH      -0.365500
@<TRIPOS>BOND
     1     1     9 1   
     2     1    24 1   
     3     1    28 1   
     4     1    29 1   
     5     2    19 1   
     6     2    30 1   
     7     2    31 1   
     8     2    32 1   
     9     3    19 1   
    10     3    33 1   
    11     3    34 1   
    12     3    35 1   
    13     4    20 1   
    14     4    24 1   
    15     4    26 2   
    16     5    12 1   
    17     5    36 1   
    18     5    37 1   
    19     5    38 1   
    20     6     7 1   
    21     6    14 1   
    22     6    20 1   
    23     6    39 1   
    24     7    27 2   
    25     7    56 1   
    26     8    10 1   
    27     8    21 1   
    28     8    40 1   
    29     8    41 1   
    30     9    13 ar  
    31     9    18 ar  
    32    10    11 1   
    33    10    42 1   
    34    10    43 1   
    35    11    22 1   
    36    11    25 2   
    37    12    21 1   
    38    12    23 2   
    39    13    15 ar  
    40    13    44 1   
    41    14    19 1   
    42    14    45 1   
    43    14    46 1   
    44    15    16 ar  
    45    15    47 1   
    46    16    17 ar  
    47    16    48 1   
    48    17    18 ar  
    49    17    49 1   
    50    18    50 1   
    51    19    51 1   
    52    20    52 1   
    53    21    56 1   
    54    22    54 1   
    55    22    55 1   
    56    53    56 1   
@<TRIPOS>SUBSTRUCTURE
     1 WOH         1 TEMP              0 ****  ****    0 ROOT
