@<TRIPOS>MOLECULE
WOI
   36    38     1     0     0
SMALL
No Charge or Current Charge


@<TRIPOS>ATOM
      1 C10          8.2910     7.8990    17.3760 c3         1 WOI      -0.134400
      2 O12          5.9310     7.1060    14.9250 o          1 WOI      -0.698500
      3 C13          5.4910     6.9470    21.2750 cp         1 WOI      -0.114500
      4 C15          1.8390     4.0060    18.4940 ca         1 WOI      -0.031000
      5 C16          6.3970     7.6660    22.1050 ca         1 WOI      -0.078000
      6 C17          4.3260     6.4120    21.8960 ca         1 WOI      -0.078000
      7 C18          0.6880     6.5640    18.7180 ca         1 WOI      -0.171000
      8 C19          0.6850     4.1930    19.2750 ca         1 WOI      -0.171000
      9 C20          6.1520     7.8370    23.4780 ca         1 WOI      -0.132000
     10 C21          4.0840     6.5860    23.2690 ca         1 WOI      -0.132000
     11 C22          0.1150     5.4700    19.3850 ca         1 WOI       0.166000
     12 C23          4.9960     7.2980    24.0620 ca         1 WOI      -0.118000
     13 F24         -0.9920     5.6480    20.1370 f          1 WOI      -0.198000
     14 C14          1.8410     6.3800    17.9360 ca         1 WOI      -0.031000
     15 C8           2.4190     5.1000    17.8270 ca         1 WOI      -0.139000
     16 C1           5.0750     5.8600    17.7730 ca         1 WOI       0.221300
     17 N3           4.8750     6.0150    19.0980 nb         1 WOI      -0.218000
     18 C7           5.7500     6.7630    19.8000 cp         1 WOI       0.156500
     19 N9           6.8360     7.3610    19.2640 nb         1 WOI      -0.210000
     20 C5           7.0580     7.2100    17.9420 ca         1 WOI       0.128300
     21 C2           6.1830     6.4510    17.1410 ca         1 WOI      -0.174600
     22 C6           6.4160     6.2790    15.6820 c          1 WOI       0.712600
     23 O11          7.1020     5.3360    15.3200 o          1 WOI      -0.698500
     24 H25          8.8500     8.4400    18.1500 hc         1 WOI       0.051700
     25 H27          8.9750     7.1710    16.9250 hc         1 WOI       0.051700
     26 H26          8.0130     8.6250    16.6020 hc         1 WOI       0.051700
     27 H30          2.2840     3.0160    18.4110 ha         1 WOI       0.130000
     28 H31          7.3040     8.0970    21.6870 ha         1 WOI       0.135500
     29 H32          3.5950     5.8560    21.3120 ha         1 WOI       0.135500
     30 H33          0.2400     7.5500    18.8080 ha         1 WOI       0.122500
     31 H34          0.2350     3.3510    19.7950 ha         1 WOI       0.122500
     32 H35          6.8610     8.3900    24.0910 ha         1 WOI       0.102500
     33 H36          3.1860     6.1670    23.7190 ha         1 WOI       0.102500
     34 H37          4.8080     7.4320    25.1250 ha         1 WOI       0.097000
     35 H29          2.2880     7.2280    17.4200 ha         1 WOI       0.130000
     36 S4           3.9000     4.8620    16.8480 ss         1 WOI      -0.087300
@<TRIPOS>BOND
     1     1    20 1   
     2     1    24 1   
     3     1    25 1   
     4     1    26 1   
     5     2    22 1   
     6     3     5 ar  
     7     3     6 ar  
     8     3    18 1   
     9     4     8 ar  
    10     4    15 ar  
    11     4    27 1   
    12     5     9 ar  
    13     5    28 1   
    14     6    10 ar  
    15     6    29 1   
    16     7    11 ar  
    17     7    14 ar  
    18     7    30 1   
    19     8    11 ar  
    20     8    31 1   
    21     9    12 ar  
    22     9    32 1   
    23    10    12 ar  
    24    10    33 1   
    25    11    13 1   
    26    12    34 1   
    27    14    15 ar  
    28    14    35 1   
    29    15    36 1   
    30    16    17 ar  
    31    16    21 ar  
    32    16    36 1   
    33    17    18 ar  
    34    18    19 ar  
    35    19    20 ar  
    36    20    21 ar  
    37    21    22 1   
    38    22    23 1   
@<TRIPOS>SUBSTRUCTURE
     1 WOI         1 TEMP              0 ****  ****    0 ROOT
