@<TRIPOS>MOLECULE
WOI
   36    38     1     0     0
SMALL
abcg2


@<TRIPOS>ATOM
      1 C10          8.4770     7.5790    17.4840 c3         1 WOI      -0.134400
      2 O12          6.7060     7.4500    14.9600 o          1 WOI      -0.698500
      3 C13          5.3730     7.0300    21.1550 cp         1 WOI      -0.114500
      4 C15          2.1440     4.1260    18.5400 ca         1 WOI      -0.031000
      5 C16          6.3230     7.5470    22.0410 ca         1 WOI      -0.078000
      6 C17          4.1070     6.6870    21.6460 ca         1 WOI      -0.078000
      7 C18          0.5950     6.3990    19.0190 ca         1 WOI      -0.171000
      8 C19          1.1250     4.0750    19.4850 ca         1 WOI      -0.171000
      9 C20          6.0170     7.7140    23.3860 ca         1 WOI      -0.132000
     10 C21          3.8030     6.8560    22.9900 ca         1 WOI      -0.132000
     11 C22          0.3800     5.2180    19.7090 ca         1 WOI       0.166000
     12 C23          4.7560     7.3690    23.8660 ca         1 WOI      -0.118000
     13 F24         -0.6030     5.1790    20.6410 f          1 WOI      -0.198000
     14 C14          1.6110     6.4330    18.0730 ca         1 WOI      -0.031000
     15 C8           2.3950     5.3040    17.8400 ca         1 WOI      -0.139000
     16 C1           5.0000     6.1220    17.6700 ca         1 WOI       0.221300
     17 N3           4.7480     6.2810    18.9600 nb         1 WOI      -0.218000
     18 C7           5.6890     6.8480    19.7170 cp         1 WOI       0.156500
     19 N9           6.8780     7.2490    19.2640 nb         1 WOI      -0.210000
     20 C5           7.1350     7.1030    17.9560 ca         1 WOI       0.128300
     21 C2           6.2000     6.5390    17.0810 ca         1 WOI      -0.174600
     22 C6           6.4560     6.3960    15.5890 c          1 WOI       0.712600
     23 O11          6.3790     5.2320    15.1260 o          1 WOI      -0.698500
     24 H25          9.1600     7.6430    18.3290 hc         1 WOI       0.051700
     25 H27          8.8920     6.9190    16.7230 hc         1 WOI       0.051700
     26 H26          8.3840     8.5700    17.0340 hc         1 WOI       0.051700
     27 H30          2.7540     3.2520    18.3600 ha         1 WOI       0.130000
     28 H31          7.3010     7.8140    21.6680 ha         1 WOI       0.135500
     29 H32          3.3670     6.2910    20.9650 ha         1 WOI       0.135500
     30 H33         -0.0170     7.2670    19.2220 ha         1 WOI       0.122500
     31 H34          0.9190     3.1720    20.0440 ha         1 WOI       0.122500
     32 H35          6.7640     8.1120    24.0610 ha         1 WOI       0.102500
     33 H36          2.8190     6.5880    23.3550 ha         1 WOI       0.102500
     34 H37          4.5190     7.5000    24.9140 ha         1 WOI       0.097000
     35 H29          1.8070     7.3470    17.5280 ha         1 WOI       0.130000
     36 S4           3.7340     5.3610    16.6680 ss         1 WOI      -0.087300
@<TRIPOS>BOND
     1     1    20 1   
     2     1    24 1   
     3     1    25 1   
     4     1    26 1   
     5     2    22 1   
     6     3     5 ar  
     7     3     6 ar  
     8     3    18 1   
     9     4     8 ar  
    10     4    15 ar  
    11     4    27 1   
    12     5     9 ar  
    13     5    28 1   
    14     6    10 ar  
    15     6    29 1   
    16     7    11 ar  
    17     7    14 ar  
    18     7    30 1   
    19     8    11 ar  
    20     8    31 1   
    21     9    12 ar  
    22     9    32 1   
    23    10    12 ar  
    24    10    33 1   
    25    11    13 1   
    26    12    34 1   
    27    14    15 ar  
    28    14    35 1   
    29    15    36 1   
    30    16    17 ar  
    31    16    21 ar  
    32    16    36 1   
    33    17    18 ar  
    34    18    19 ar  
    35    19    20 ar  
    36    20    21 ar  
    37    21    22 1   
    38    22    23 1   
@<TRIPOS>SUBSTRUCTURE
     1 WOI         1 TEMP              0 ****  ****    0 ROOT
