@<TRIPOS>MOLECULE
WOJ
   28    28     1     0     0
SMALL
No Charge or Current Charge


@<TRIPOS>ATOM
      1 C01        -31.2070    -7.9920   -18.3690 c3         1 WOJ      -0.075100
      2 C02        -30.8440    -7.0570   -19.5660 c6         1 WOJ      -0.049700
      3 C03        -29.3080    -6.9990   -19.7840 c6         1 WOJ       0.194800
      4 C05        -29.4120    -8.6650   -21.5980 c6         1 WOJ       0.196800
      5 C06        -30.9510    -8.7580   -21.4710 c6         1 WOJ      -0.074400
      6 C07        -31.5300    -7.4390   -20.9100 c6         1 WOJ       0.169500
      7 C12        -26.4730    -7.1700   -21.4210 c3         1 WOJ      -0.383100
      8 N04        -28.7730    -8.2850   -20.3100 n3         1 WOJ      -0.722500
      9 N08        -33.0020    -7.5080   -20.7950 n8         1 WOJ      -0.992200
     10 O10        -26.6250    -8.0760   -18.9250 o          1 WOJ      -0.530500
     11 O11        -26.7270    -9.7470   -20.8200 o          1 WOJ      -0.530500
     12 S09        -27.0540    -8.4210   -20.2840 s6         1 WOJ       1.197100
     13 H1         -30.7150    -7.6560   -17.4480 hc         1 WOJ       0.043367
     14 H2         -32.2860    -7.9990   -18.1730 hc         1 WOJ       0.043367
     15 H3         -30.8930    -9.0270   -18.5460 hc         1 WOJ       0.043367
     16 H4         -31.1810    -6.0520   -19.2770 hc         1 WOJ       0.044700
     17 H5         -28.8350    -6.7420   -18.8250 h1         1 WOJ       0.052200
     18 H6         -29.0790    -6.1780   -20.4800 h1         1 WOJ       0.052200
     19 H7         -29.0420    -9.6410   -21.9440 h1         1 WOJ       0.051700
     20 H8         -29.1640    -7.9320   -22.3800 h1         1 WOJ       0.051700
     21 H9         -31.3840    -8.9730   -22.4570 hc         1 WOJ       0.061200
     22 H10        -31.2160    -9.6030   -20.8230 hc         1 WOJ       0.061200
     23 H11        -31.3210    -6.6400   -21.6370 h1         1 WOJ       0.004700
     24 H12        -26.8080    -6.1960   -21.0520 h1         1 WOJ       0.098700
     25 H13        -25.3800    -7.2280   -21.4350 h1         1 WOJ       0.098700
     26 H14        -26.8900    -7.3900   -22.4080 h1         1 WOJ       0.098700
     27 H15        -33.3510    -6.5900   -20.4980 hn         1 WOJ       0.396000
     28 H16        -33.4010    -7.6220   -21.7330 hn         1 WOJ       0.396000
@<TRIPOS>BOND
     1     1     2 1   
     2     1    13 1   
     3     1    14 1   
     4     1    15 1   
     5     2     3 1   
     6     2     6 1   
     7     2    16 1   
     8     3     8 1   
     9     3    17 1   
    10     3    18 1   
    11     4     5 1   
    12     4     8 1   
    13     4    19 1   
    14     4    20 1   
    15     5     6 1   
    16     5    21 1   
    17     5    22 1   
    18     6     9 1   
    19     6    23 1   
    20     7    12 1   
    21     7    24 1   
    22     7    25 1   
    23     7    26 1   
    24     8    12 1   
    25     9    27 1   
    26     9    28 1   
    27    10    12 2   
    28    11    12 2   
@<TRIPOS>SUBSTRUCTURE
     1 WOJ         1 TEMP              0 ****  ****    0 ROOT
