@<TRIPOS>MOLECULE
WOJ
   28    28     1     0     0
SMALL
abcg2


@<TRIPOS>ATOM
      1 C01        -31.1010    -8.0050   -18.4410 c3         1 WOJ      -0.075100
      2 C02        -30.8510    -7.0430   -19.5970 c6         1 WOJ      -0.049700
      3 C03        -29.3600    -6.8880   -19.8870 c6         1 WOJ       0.194800
      4 C05        -29.4520    -8.5430   -21.6820 c6         1 WOJ       0.196800
      5 C06        -30.9490    -8.7040   -21.4750 c6         1 WOJ      -0.074400
      6 C07        -31.5640    -7.4350   -20.8980 c6         1 WOJ       0.169500
      7 C12        -26.3730    -7.2860   -21.3210 c3         1 WOJ      -0.383100
      8 N04        -28.8300    -8.1460   -20.4160 n3         1 WOJ      -0.722500
      9 N08        -32.9870    -7.6220   -20.6750 n8         1 WOJ      -0.992200
     10 O10        -26.8590    -8.0860   -18.8700 o          1 WOJ      -0.530500
     11 O11        -26.9490    -9.7750   -20.7160 o          1 WOJ      -0.530500
     12 S09        -27.2150    -8.4240   -20.2410 s6         1 WOJ       1.197100
     13 H1         -30.6030    -7.6500   -17.5370 hc         1 WOJ       0.043367
     14 H2         -32.1640    -8.0900   -18.2240 hc         1 WOJ       0.043367
     15 H3         -30.7220    -9.0050   -18.6490 hc         1 WOJ       0.043367
     16 H4         -31.2070    -6.0500   -19.3030 hc         1 WOJ       0.044700
     17 H5         -28.8330    -6.6220   -18.9730 h1         1 WOJ       0.052200
     18 H6         -29.2090    -6.0770   -20.6120 h1         1 WOJ       0.052200
     19 H7         -29.0210    -9.4810   -22.0240 h1         1 WOJ       0.051700
     20 H8         -29.2670    -7.7840   -22.4540 h1         1 WOJ       0.051700
     21 H9         -31.4060    -8.9360   -22.4400 hc         1 WOJ       0.061200
     22 H10        -31.1430    -9.5530   -20.8140 hc         1 WOJ       0.061200
     23 H11        -31.3600    -6.6250   -21.6190 h1         1 WOJ       0.004700
     24 H12        -26.6250    -6.2650   -21.0440 h1         1 WOJ       0.098700
     25 H13        -25.3020    -7.4430   -21.2060 h1         1 WOJ       0.098700
     26 H14        -26.6630    -7.4780   -22.3520 h1         1 WOJ       0.098700
     27 H15        -33.3930    -6.7570   -20.3400 hn         1 WOJ       0.396000
     28 H16        -33.4430    -7.8130   -21.5590 hn         1 WOJ       0.396000
@<TRIPOS>BOND
     1     1     2 1   
     2     1    13 1   
     3     1    14 1   
     4     1    15 1   
     5     2     3 1   
     6     2     6 1   
     7     2    16 1   
     8     3     8 1   
     9     3    17 1   
    10     3    18 1   
    11     4     5 1   
    12     4     8 1   
    13     4    19 1   
    14     4    20 1   
    15     5     6 1   
    16     5    21 1   
    17     5    22 1   
    18     6     9 1   
    19     6    23 1   
    20     7    12 1   
    21     7    24 1   
    22     7    25 1   
    23     7    26 1   
    24     8    12 1   
    25     9    27 1   
    26     9    28 1   
    27    10    12 2   
    28    11    12 2   
@<TRIPOS>SUBSTRUCTURE
     1 WOJ         1 TEMP              0 ****  ****    0 ROOT
