@<TRIPOS>MOLECULE
WOK
   82    86     1     0     0
SMALL
abcg2


@<TRIPOS>ATOM
      1 NAI          7.9390    -3.4600    22.2130 nc         1 WOK      -0.490100
      2 CAD          8.8810    -4.1060    22.9910 ca         1 WOK       0.108400
      3 CAE          8.7970    -4.2920    24.3740 ca         1 WOK      -0.087000
      4 CAF          9.8480    -4.9360    24.9860 ca         1 WOK       0.162000
      5 FBS          9.7980    -5.1260    26.3290 f          1 WOK      -0.176000
      6 CAA         10.9700    -5.4070    24.3050 ca         1 WOK      -0.138000
      7 CAB         11.0580    -5.2250    22.9350 ca         1 WOK      -0.049000
      8 CAC         10.0130    -4.5730    22.2850 ca         1 WOK      -0.201000
      9 SAG          9.8420    -4.1660    20.6070 ss         1 WOK       0.017800
     10 CAH          8.3050    -3.4100    20.9740 cd         1 WOK       0.354200
     11 C            7.5360    -2.7040    19.8830 c3         1 WOK       0.148000
     12 O            6.2010    -3.1780    19.7830 oh         1 WOK      -0.632000
     13 CA           7.4580    -1.1930    20.1750 c3         1 WOK       0.113700
     14 CB           6.9230    -0.4120    18.9740 c3         1 WOK      -0.067400
     15 CG           6.7970     1.0800    19.2510 c5         1 WOK      -0.152700
     16 CD1          5.7590     1.4800    20.3100 c5         1 WOK      -0.091400
     17 CAP          5.2650     2.8610    19.8530 c5         1 WOK       0.100000
     18 NAQ          5.4990     2.8170    18.4130 ns         1 WOK      -0.513900
     19 CD2          6.3790     1.8780    18.0180 c          1 WOK       0.559000
     20 OAS          6.7880     1.7110    16.8700 o          1 WOK      -0.566000
     21 N            8.7640    -0.7040    20.5760 ns         1 WOK      -0.503900
     22 CAU          9.0190    -0.1540    21.7770 c          1 WOK       0.599100
     23 OAW          8.1690     0.0450    22.6390 o          1 WOK      -0.591100
     24 CAV         10.4950     0.1540    22.0290 c5         1 WOK       0.059700
     25 CBA         11.0890    -0.9090    22.9310 cx         1 WOK      -0.129700
     26 CBB         12.5420    -0.8070    23.3230 cx         1 WOK      -0.076000
     27 CBC         13.4980     0.1050    22.5870 c3         1 WOK      -0.065600
     28 CBD         13.1720    -2.1100    23.7700 c3         1 WOK      -0.065600
     29 CAZ         11.4730    -0.2560    24.2370 cx         1 WOK      -0.125700
     30 CAY         11.1090     1.2080    24.1610 c5         1 WOK       0.137000
     31 NAX         10.6450     1.4040    22.7750 n          1 WOK      -0.392800
     32 CBE         10.3530     2.5590    22.1590 c          1 WOK       0.594100
     33 OBG         10.0150     2.5950    20.9720 o          1 WOK      -0.626100
     34 CBF         10.4520     3.8630    22.9530 c3         1 WOK       0.046700
     35 CBO          9.0570     4.4210    23.3890 c3         1 WOK      -0.050000
     36 CBQ          8.1720     4.7560    22.1820 c3         1 WOK      -0.091100
     37 CBR          9.2920     5.6940    24.2130 c3         1 WOK      -0.091100
     38 CBP          8.3490     3.3800    24.2640 c3         1 WOK      -0.091100
     39 NBH         11.1740     4.7960    22.0980 ns         1 WOK      -0.476900
     40 CBI         12.2210     5.5080    22.5090 c          1 WOK       0.555100
     41 OBN         12.7030     5.5410    23.6300 o          1 WOK      -0.553100
     42 CBJ         12.8730     6.3990    21.4190 c3         1 WOK       0.208000
     43 FBL         12.7710     7.6940    21.7640 f          1 WOK      -0.101333
     44 FBM         12.3180     6.2590    20.2010 f          1 WOK      -0.101333
     45 FBK         14.1780     6.1080    21.3070 f          1 WOK      -0.101333
     46 H1           7.9470    -3.9360    24.9400 ha         1 WOK       0.157000
     47 H2          11.7590    -5.9010    24.8560 ha         1 WOK       0.138000
     48 H3          11.9240    -5.5750    22.3920 ha         1 WOK       0.131000
     49 H4           6.8050    -1.0630    21.0360 h1         1 WOK       0.111700
     50 H5           5.9490    -0.8200    18.7000 hc         1 WOK       0.064700
     51 H6           7.5940    -0.5660    18.1240 hc         1 WOK       0.064700
     52 H7           7.7800     1.4750    19.5330 hc         1 WOK       0.091700
     53 H8           4.9300     0.7680    20.2930 hc         1 WOK       0.066200
     54 H9           6.1670     1.5020    21.3170 hc         1 WOK       0.066200
     55 H10          5.8430     3.6680    20.3110 h1         1 WOK       0.044700
     56 H11          4.2100     3.0260    20.0700 h1         1 WOK       0.044700
     57 H12          5.1850     3.5410    17.7840 hn         1 WOK       0.326500
     58 H13          9.5200    -0.7660    19.9100 hn         1 WOK       0.317500
     59 H14         11.0200     0.2400    21.0760 h1         1 WOK       0.083700
     60 H15         10.6290    -1.8850    22.9080 hc         1 WOK       0.106700
     61 H16         14.3570     0.3380    23.2220 hc         1 WOK       0.042700
     62 H17         13.8750    -0.3930    21.6890 hc         1 WOK       0.042700
     63 H18         13.0480     1.0480    22.2810 hc         1 WOK       0.042700
     64 H19         12.4540    -2.7380    24.2990 hc         1 WOK       0.042700
     65 H20         13.5400    -2.6740    22.9090 hc         1 WOK       0.042700
     66 H21         14.0170    -1.9200    24.4360 hc         1 WOK       0.042700
     67 H22         11.2900    -0.7560    25.1780 hc         1 WOK       0.104700
     68 H23         11.9530     1.8670    24.3680 h1         1 WOK       0.062700
     69 H24         10.3130     1.4310    24.8700 h1         1 WOK       0.062700
     70 H25         11.0520     3.7290    23.8490 h1         1 WOK       0.087700
     71 H26          7.2380     5.1940    22.5370 hc         1 WOK       0.043589
     72 H27          8.6500     5.4820    21.5220 hc         1 WOK       0.043589
     73 H28          7.9350     3.8670    21.6000 hc         1 WOK       0.043589
     74 H29          9.9220     5.4910    25.0810 hc         1 WOK       0.043589
     75 H30          9.7680     6.4750    23.6170 hc         1 WOK       0.043589
     76 H31          8.3350     6.0810    24.5670 hc         1 WOK       0.043589
     77 H32          8.9260     3.1620    25.1640 hc         1 WOK       0.043589
     78 H33          7.3790     3.7720    24.5760 hc         1 WOK       0.043589
     79 H34          8.1780     2.4460    23.7260 hc         1 WOK       0.043589
     80 H35         10.9080     4.8130    21.1240 hn         1 WOK       0.355500
     81 H36          8.0660    -2.8530    18.9360 h1         1 WOK       0.044700
     82 H37          6.2180    -4.0820    19.4440 ho         1 WOK       0.453000
@<TRIPOS>BOND
     1     1     2 1   
     2     1    10 2   
     3     2     3 ar  
     4     2     8 ar  
     5     3     4 ar  
     6     3    46 1   
     7     4     5 1   
     8     4     6 ar  
     9     6     7 ar  
    10     6    47 1   
    11     7     8 ar  
    12     7    48 1   
    13     8     9 1   
    14     9    10 1   
    15    10    11 1   
    16    11    12 1   
    17    11    13 1   
    18    11    81 1   
    19    12    82 1   
    20    13    14 1   
    21    13    21 1   
    22    13    49 1   
    23    14    15 1   
    24    14    50 1   
    25    14    51 1   
    26    15    16 1   
    27    15    19 1   
    28    15    52 1   
    29    16    17 1   
    30    16    53 1   
    31    16    54 1   
    32    17    18 1   
    33    17    55 1   
    34    17    56 1   
    35    18    19 1   
    36    18    57 1   
    37    19    20 2   
    38    21    22 1   
    39    21    58 1   
    40    22    23 2   
    41    22    24 1   
    42    24    25 1   
    43    24    31 1   
    44    24    59 1   
    45    25    26 1   
    46    25    29 1   
    47    25    60 1   
    48    26    27 1   
    49    26    28 1   
    50    26    29 1   
    51    27    61 1   
    52    27    62 1   
    53    27    63 1   
    54    28    64 1   
    55    28    65 1   
    56    28    66 1   
    57    29    30 1   
    58    29    67 1   
    59    30    31 1   
    60    30    68 1   
    61    30    69 1   
    62    31    32 1   
    63    32    33 2   
    64    32    34 1   
    65    34    35 1   
    66    34    39 1   
    67    34    70 1   
    68    35    36 1   
    69    35    37 1   
    70    35    38 1   
    71    36    71 1   
    72    36    72 1   
    73    36    73 1   
    74    37    74 1   
    75    37    75 1   
    76    37    76 1   
    77    38    77 1   
    78    38    78 1   
    79    38    79 1   
    80    39    40 1   
    81    39    80 1   
    82    40    41 2   
    83    40    42 1   
    84    42    43 1   
    85    42    44 1   
    86    42    45 1   
@<TRIPOS>SUBSTRUCTURE
     1 WOK         1 TEMP              0 ****  ****    0 ROOT
