@<TRIPOS>MOLECULE
WOK
   82    86     1     0     0
SMALL
No Charge or Current Charge


@<TRIPOS>ATOM
      1 NAI          7.5100    -3.6010    22.3300 nc         1 WOK      -0.490100
      2 CAD          8.3930    -4.1590    23.2470 ca         1 WOK       0.108400
      3 CAE          8.0760    -4.3720    24.5970 ca         1 WOK      -0.087000
      4 CAF          9.0430    -4.9250    25.4560 ca         1 WOK       0.162000
      5 FBS          8.7440    -5.1290    26.7580 f          1 WOK      -0.176000
      6 CAA         10.3220    -5.2650    24.9740 ca         1 WOK      -0.138000
      7 CAB         10.6370    -5.0530    23.6190 ca         1 WOK      -0.049000
      8 CAC          9.6530    -4.5010    22.7850 ca         1 WOK      -0.201000
      9 SAG          9.8460    -4.1450    21.0820 ss         1 WOK       0.017800
     10 CAH          8.1720    -3.5340    21.1620 cd         1 WOK       0.354200
     11 C            7.5580    -2.8670    19.9340 c3         1 WOK       0.148000
     12 O            6.2240    -3.3480    19.6390 oh         1 WOK      -0.632000
     13 CA           7.5410    -1.3150    20.0760 c3         1 WOK       0.113700
     14 CB           7.1680    -0.5800    18.7600 c3         1 WOK      -0.067400
     15 CG           7.1230     0.9740    18.8540 c5         1 WOK      -0.152700
     16 CD1          6.0400     1.5550    19.8060 c5         1 WOK      -0.091400
     17 CAP          5.9370     3.0160    19.2910 c5         1 WOK       0.100000
     18 NAQ          6.1080     2.8040    17.8560 ns         1 WOK      -0.513900
     19 CD2          6.7980     1.6690    17.5250 c          1 WOK       0.559000
     20 OAS          6.8830     1.2490    16.3830 o          1 WOK      -0.566000
     21 N            8.8310    -0.8190    20.5830 ns         1 WOK      -0.503900
     22 CAU          8.9830    -0.0720    21.7350 c          1 WOK       0.599100
     23 OAW          8.0470     0.2490    22.4560 o          1 WOK      -0.591100
     24 CAV         10.4970     0.2110    21.9720 c5         1 WOK       0.059700
     25 CBA         11.1460    -0.8900    22.8310 cx         1 WOK      -0.129700
     26 CBB         12.6640    -0.9250    22.8830 cx         1 WOK      -0.076000
     27 CBC         13.5430    -0.1330    21.8990 c3         1 WOK      -0.065600
     28 CBD         13.3270    -2.2660    23.1940 c3         1 WOK      -0.065600
     29 CAZ         11.8640    -0.2480    23.9870 cx         1 WOK      -0.125700
     30 CAY         11.6740     1.2720    23.8990 c5         1 WOK       0.137000
     31 NAX         10.7290     1.4530    22.7680 n          1 WOK      -0.392800
     32 CBE         10.4760     2.7160    22.1920 c          1 WOK       0.594100
     33 OBG         10.1790     2.7930    21.0030 o          1 WOK      -0.626100
     34 CBF         10.5130     3.9980    23.0920 c3         1 WOK       0.046700
     35 CBO          9.1620     4.2710    23.8670 c3         1 WOK      -0.050000
     36 CBQ          7.9620     4.3480    22.8800 c3         1 WOK      -0.091100
     37 CBR          9.2430     5.6150    24.6460 c3         1 WOK      -0.091100
     38 CBP          8.8740     3.1520    24.9040 c3         1 WOK      -0.091100
     39 NBH         10.8980     5.1480    22.2360 ns         1 WOK      -0.476900
     40 CBI         11.8220     6.1240    22.5660 c          1 WOK       0.555100
     41 OBN         12.4250     6.1010    23.6340 o          1 WOK      -0.553100
     42 CBJ         12.0310     7.2250    21.4890 c3         1 WOK       0.208000
     43 FBL         12.9370     8.1550    21.8770 f          1 WOK      -0.101333
     44 FBM         10.8740     7.8780    21.2230 f          1 WOK      -0.101333
     45 FBK         12.4730     6.6950    20.3230 f          1 WOK      -0.101333
     46 H1           7.0940    -4.1080    24.9780 ha         1 WOK       0.157000
     47 H2          11.0610    -5.6900    25.6480 ha         1 WOK       0.138000
     48 H3          11.6210    -5.3090    23.2300 ha         1 WOK       0.131000
     49 H4           6.7650    -1.0800    20.8180 h1         1 WOK       0.111700
     50 H5           6.1930    -0.9460    18.4130 hc         1 WOK       0.064700
     51 H6           7.8900    -0.8720    17.9870 hc         1 WOK       0.064700
     52 H7           8.0980     1.3590    19.1740 hc         1 WOK       0.091700
     53 H8           5.0830     1.0330    19.6880 hc         1 WOK       0.066200
     54 H9           6.3140     1.5050    20.8650 hc         1 WOK       0.066200
     55 H10          6.7400     3.6440    19.7010 h1         1 WOK       0.044700
     56 H11          4.9720     3.4750    19.5440 h1         1 WOK       0.044700
     57 H12          5.7150     3.3730    17.1150 hn         1 WOK       0.326500
     58 H13          9.6710    -1.0190    20.0510 hn         1 WOK       0.317500
     59 H14         10.9740     0.2960    20.9870 h1         1 WOK       0.083700
     60 H15         10.6040    -1.8150    23.0160 hc         1 WOK       0.106700
     61 H16         14.5400     0.0360    22.3220 hc         1 WOK       0.042700
     62 H17         13.6710    -0.6890    20.9630 hc         1 WOK       0.042700
     63 H18         13.1390     0.8490    21.6360 hc         1 WOK       0.042700
     64 H19         12.7400    -2.8490    23.9140 hc         1 WOK       0.042700
     65 H20         13.4340    -2.8720    22.2870 hc         1 WOK       0.042700
     66 H21         14.3260    -2.1220    23.6250 hc         1 WOK       0.042700
     67 H22         11.8240    -0.7330    24.9600 hc         1 WOK       0.104700
     68 H23         12.6180     1.8050    23.7230 h1         1 WOK       0.062700
     69 H24         11.2500     1.6670    24.8290 h1         1 WOK       0.062700
     70 H25         11.3070     3.8510    23.8330 h1         1 WOK       0.087700
     71 H26          7.0340     4.5880    23.4130 hc         1 WOK       0.043589
     72 H27          8.1180     5.1230    22.1210 hc         1 WOK       0.043589
     73 H28          7.8040     3.3930    22.3650 hc         1 WOK       0.043589
     74 H29         10.1070     5.6260    25.3210 hc         1 WOK       0.043589
     75 H30          9.3280     6.4720    23.9670 hc         1 WOK       0.043589
     76 H31          8.3430     5.7720    25.2540 hc         1 WOK       0.043589
     77 H32          9.6840     3.0800    25.6400 hc         1 WOK       0.043589
     78 H33          7.9480     3.3600    25.4550 hc         1 WOK       0.043589
     79 H34          8.7500     2.1750    24.4250 hc         1 WOK       0.043589
     80 H35         10.4750     5.2120    21.3150 hn         1 WOK       0.355500
     81 H36          8.2140    -3.1080    19.0870 h1         1 WOK       0.044700
     82 H37          6.2420    -4.3300    19.6960 ho         1 WOK       0.453000
@<TRIPOS>BOND
     1     1     2 1   
     2     1    10 2   
     3     2     3 ar  
     4     2     8 ar  
     5     3     4 ar  
     6     3    46 1   
     7     4     5 1   
     8     4     6 ar  
     9     6     7 ar  
    10     6    47 1   
    11     7     8 ar  
    12     7    48 1   
    13     8     9 1   
    14     9    10 1   
    15    10    11 1   
    16    11    12 1   
    17    11    13 1   
    18    11    81 1   
    19    12    82 1   
    20    13    14 1   
    21    13    21 1   
    22    13    49 1   
    23    14    15 1   
    24    14    50 1   
    25    14    51 1   
    26    15    16 1   
    27    15    19 1   
    28    15    52 1   
    29    16    17 1   
    30    16    53 1   
    31    16    54 1   
    32    17    18 1   
    33    17    55 1   
    34    17    56 1   
    35    18    19 1   
    36    18    57 1   
    37    19    20 2   
    38    21    22 1   
    39    21    58 1   
    40    22    23 2   
    41    22    24 1   
    42    24    25 1   
    43    24    31 1   
    44    24    59 1   
    45    25    26 1   
    46    25    29 1   
    47    25    60 1   
    48    26    27 1   
    49    26    28 1   
    50    26    29 1   
    51    27    61 1   
    52    27    62 1   
    53    27    63 1   
    54    28    64 1   
    55    28    65 1   
    56    28    66 1   
    57    29    30 1   
    58    29    67 1   
    59    30    31 1   
    60    30    68 1   
    61    30    69 1   
    62    31    32 1   
    63    32    33 2   
    64    32    34 1   
    65    34    35 1   
    66    34    39 1   
    67    34    70 1   
    68    35    36 1   
    69    35    37 1   
    70    35    38 1   
    71    36    71 1   
    72    36    72 1   
    73    36    73 1   
    74    37    74 1   
    75    37    75 1   
    76    37    76 1   
    77    38    77 1   
    78    38    78 1   
    79    38    79 1   
    80    39    40 1   
    81    39    80 1   
    82    40    41 2   
    83    40    42 1   
    84    42    43 1   
    85    42    44 1   
    86    42    45 1   
@<TRIPOS>SUBSTRUCTURE
     1 WOK         1 TEMP              0 ****  ****    0 ROOT
