@<TRIPOS>MOLECULE
WOL
   54    58     1     0     0
SMALL
No Charge or Current Charge


@<TRIPOS>ATOM
      1 C10        -23.8630    13.8100   -14.1850 c6         1 WOL      -0.017500
      2 C13        -23.6390    16.3530   -14.0830 ce         1 WOL      -0.041400
      3 C15        -21.2980    14.8110   -17.2200 c5         1 WOL      -0.065400
      4 C17        -22.0770    17.1230   -16.7030 c          1 WOL       0.581100
      5 C22        -24.2040    18.1830   -13.3010 ca         1 WOL      -0.103800
      6 C24        -23.9370    20.5730   -13.1180 ca         1 WOL      -0.162000
      7 C02        -25.5740    10.1090   -12.6050 c          1 WOL       0.569300
      8 C05        -24.0160    12.6750   -13.0880 c6         1 WOL      -0.009800
      9 C06        -25.5060    12.6440   -12.5770 c6         1 WOL      -0.064400
     10 C09        -22.4800    13.7310   -14.9540 c6         1 WOL      -0.048700
     11 C11        -22.3360    14.8750   -16.0320 c5         1 WOL      -0.058700
     12 C12        -22.0140    16.2710   -15.4290 c5         1 WOL      -0.113800
     13 C14        -24.2260    15.2190   -13.6590 c2         1 WOL      -0.199200
     14 C16        -21.2710    16.2990   -17.7260 c5         1 WOL      -0.190400
     15 C18        -20.6630    16.4480   -14.6770 c3         1 WOL      -0.080100
     16 C19        -23.0570    12.9370   -11.8790 c3         1 WOL      -0.080100
     17 C23        -23.5220    19.3520   -13.6740 ca         1 WOL      -0.038000
     18 C25        -25.0130    20.5830   -12.2130 ca         1 WOL       0.334900
     19 C27        -25.2710    18.2860   -12.3870 ca         1 WOL       0.339900
     20 N26        -25.6760    19.4610   -11.8470 nb         1 WOL      -0.667000
     21 O20        -26.2980     9.1240   -12.5690 o          1 WOL      -0.531100
     22 O21        -22.8460    18.0440   -16.9440 o          1 WOL      -0.507100
     23 H101       -24.6270    13.5940   -14.9460 hc         1 WOL       0.059700
     24 H151       -21.6130    14.1130   -18.0040 hc         1 WOL       0.051700
     25 H152       -20.3090    14.4840   -16.8760 hc         1 WOL       0.051700
     26 H241       -23.4370    21.5010   -13.3790 ha         1 WOL       0.125000
     27 H011       -25.2250    11.3200   -10.9050 hc         1 WOL       0.072200
     28 H012       -26.9120    11.3510   -11.4450 hc         1 WOL       0.072200
     29 H031       -24.0620     9.2110   -13.8830 ha         1 WOL       0.196000
     30 H061       -25.7180    13.5070   -11.9320 hc         1 WOL       0.050200
     31 H062       -26.1920    12.7260   -13.4320 hc         1 WOL       0.050200
     32 H072       -22.3050    10.2510   -15.0350 hc         1 WOL       0.055700
     33 H071       -21.4990    11.3090   -13.8940 hc         1 WOL       0.055700
     34 H081       -23.1480    12.1780   -16.3410 hc         1 WOL       0.048200
     35 H082       -21.3970    12.2590   -16.1590 hc         1 WOL       0.048200
     36 H091       -21.6560    13.8400   -14.2390 hc         1 WOL       0.057700
     37 H111       -23.3340    14.9090   -16.4900 hc         1 WOL       0.052700
     38 H4         -25.0390    15.2930   -12.9410 ha         1 WOL       0.181000
     39 H162       -20.2340    16.6510   -17.6980 hc         1 WOL       0.074700
     40 H161       -21.6670    16.4490   -18.7360 hc         1 WOL       0.074700
     41 H181       -20.6190    15.8170   -13.7830 hc         1 WOL       0.046033
     42 H182       -19.7930    16.2080   -15.2970 hc         1 WOL       0.046033
     43 H183       -20.5480    17.4850   -14.3400 hc         1 WOL       0.046033
     44 H192       -23.1100    12.1330   -11.1370 hc         1 WOL       0.040367
     45 H191       -22.0080    13.0050   -12.1860 hc         1 WOL       0.040367
     46 H193       -23.3050    13.8730   -11.3640 hc         1 WOL       0.040367
     47 H231       -22.6920    19.3130   -14.3760 ha         1 WOL       0.124000
     48 H251       -25.3550    21.5170   -11.7680 h4         1 WOL       0.019100
     49 H271       -25.8210    17.4000   -12.0760 h4         1 WOL       0.016100
     50 C04        -23.6430    11.2910   -13.6810 c2         1 WOL      -0.035400
     51 C07        -22.3840    11.2280   -14.5400 c6         1 WOL      -0.051200
     52 C01        -25.8700    11.3630   -11.7910 c6         1 WOL      -0.179400
     53 C03        -24.3460    10.1600   -13.4320 ce         1 WOL      -0.312200
     54 C08        -22.3450    12.3350   -15.6080 c6         1 WOL      -0.066400
@<TRIPOS>BOND
     1     1     8 1   
     2     1    10 1   
     3     1    13 1   
     4     1    23 1   
     5     2     5 1   
     6     2    12 1   
     7     2    13 2   
     8     3    11 1   
     9     3    14 1   
    10     3    24 1   
    11     3    25 1   
    12     4    12 1   
    13     4    14 1   
    14     4    22 2   
    15     5    17 ar  
    16     5    19 ar  
    17     6    17 ar  
    18     6    18 ar  
    19     6    26 1   
    20     7    21 2   
    21     7    52 1   
    22     7    53 1   
    23     8     9 1   
    24     8    16 1   
    25     8    50 1   
    26     9    30 1   
    27     9    31 1   
    28     9    52 1   
    29    10    11 1   
    30    10    36 1   
    31    10    54 1   
    32    11    12 1   
    33    11    37 1   
    34    12    15 1   
    35    13    38 1   
    36    14    39 1   
    37    14    40 1   
    38    15    41 1   
    39    15    42 1   
    40    15    43 1   
    41    16    44 1   
    42    16    45 1   
    43    16    46 1   
    44    17    47 1   
    45    18    20 ar  
    46    18    48 1   
    47    19    20 ar  
    48    19    49 1   
    49    27    52 1   
    50    28    52 1   
    51    29    53 1   
    52    32    51 1   
    53    33    51 1   
    54    34    54 1   
    55    35    54 1   
    56    50    51 1   
    57    50    53 2   
    58    51    54 1   
@<TRIPOS>SUBSTRUCTURE
     1 WOL         1 TEMP              0 ****  ****    0 ROOT
