@<TRIPOS>MOLECULE
WOL
   54    58     1     0     0
SMALL
abcg2


@<TRIPOS>ATOM
      1 C10        -23.8290    13.8730   -14.2870 c6         1 WOL      -0.017500
      2 C13        -23.4510    16.3840   -14.2010 ce         1 WOL      -0.041400
      3 C15        -21.1740    15.0500   -16.9100 c5         1 WOL      -0.065400
      4 C17        -21.8930    17.2720   -16.1660 c          1 WOL       0.581100
      5 C22        -23.8540    17.6980   -13.6370 ca         1 WOL      -0.103800
      6 C24        -24.8650    19.8700   -13.7870 ca         1 WOL      -0.162000
      7 C02        -25.6610    10.3720   -12.5830 c          1 WOL       0.569300
      8 C05        -24.0290    12.8010   -13.1680 c6         1 WOL      -0.009800
      9 C06        -25.4780    12.8770   -12.6480 c6         1 WOL      -0.064400
     10 C09        -22.4770    13.7380   -15.0070 c6         1 WOL      -0.048700
     11 C11        -22.3230    14.9490   -15.9050 c5         1 WOL      -0.058700
     12 C12        -22.2230    16.2480   -15.0760 c5         1 WOL      -0.113800
     13 C14        -24.1110    15.2820   -13.8270 c2         1 WOL      -0.199200
     14 C16        -21.2440    16.5270   -17.3280 c5         1 WOL      -0.190400
     15 C18        -20.9710    16.3110   -14.1520 c3         1 WOL      -0.080100
     16 C19        -23.0400    13.0310   -12.0070 c3         1 WOL      -0.080100
     17 C23        -24.4770    18.6870   -14.3980 ca         1 WOL      -0.038000
     18 C25        -24.6130    20.0370   -12.4300 ca         1 WOL       0.334900
     19 C27        -23.6550    17.9680   -12.2820 ca         1 WOL       0.339900
     20 N26        -24.0190    19.1050   -11.6810 nb         1 WOL      -0.667000
     21 O20        -26.3320     9.3650   -12.3690 o          1 WOL      -0.531100
     22 O21        -22.0440    18.4720   -16.1160 o          1 WOL      -0.507100
     23 H101       -24.5980    13.6420   -15.0390 hc         1 WOL       0.059700
     24 H151       -21.3030    14.3740   -17.7550 hc         1 WOL       0.051700
     25 H152       -20.2160    14.8160   -16.4430 hc         1 WOL       0.051700
     26 H241       -25.3580    20.6520   -14.3490 ha         1 WOL       0.125000
     27 H011       -25.3260    11.5950   -10.9050 hc         1 WOL       0.072200
     28 H012       -26.9530    11.7120   -11.5530 hc         1 WOL       0.072200
     29 H031       -24.3470     9.4130   -14.0080 ha         1 WOL       0.196000
     30 H061       -25.6050    13.7720   -12.0390 hc         1 WOL       0.050200
     31 H062       -26.1480    12.9760   -13.5070 hc         1 WOL       0.050200
     32 H072       -22.5970    10.2900   -15.1470 hc         1 WOL       0.055700
     33 H071       -21.6790    11.2840   -14.0290 hc         1 WOL       0.055700
     34 H081       -23.2170    12.3220   -16.4530 hc         1 WOL       0.048200
     35 H082       -21.4700    12.2650   -16.2350 hc         1 WOL       0.048200
     36 H091       -21.6700    13.7560   -14.2710 hc         1 WOL       0.057700
     37 H111       -23.2490    15.0400   -16.4880 hc         1 WOL       0.052700
     38 H4         -24.9620    15.4140   -13.1690 ha         1 WOL       0.181000
     39 H162       -20.2860    16.9850   -17.5790 hc         1 WOL       0.074700
     40 H161       -21.9000    16.6600   -18.1940 hc         1 WOL       0.074700
     41 H181       -21.0130    15.5230   -13.4040 hc         1 WOL       0.046033
     42 H182       -20.0400    16.2120   -14.7120 hc         1 WOL       0.046033
     43 H183       -20.9540    17.2730   -13.6390 hc         1 WOL       0.046033
     44 H192       -23.2190    12.3230   -11.1970 hc         1 WOL       0.040367
     45 H191       -22.0050    12.9160   -12.3240 hc         1 WOL       0.040367
     46 H193       -23.1640    14.0420   -11.6150 hc         1 WOL       0.040367
     47 H231       -24.6630    18.5260   -15.4500 ha         1 WOL       0.124000
     48 H251       -24.9030    20.9530   -11.9260 h4         1 WOL       0.019100
     49 H271       -23.1770    17.2200   -11.6570 h4         1 WOL       0.016100
     50 C04        -23.7720    11.4310   -13.7840 c2         1 WOL      -0.035400
     51 C07        -22.5690    11.2700   -14.6710 c6         1 WOL      -0.051200
     52 C01        -25.9000    11.6580   -11.8360 c6         1 WOL      -0.179400
     53 C03        -24.5570    10.3660   -13.5330 ce         1 WOL      -0.312200
     54 C08        -22.4180    12.3890   -15.7080 c6         1 WOL      -0.066400
@<TRIPOS>BOND
     1     1     8 1   
     2     1    10 1   
     3     1    13 1   
     4     1    23 1   
     5     2     5 1   
     6     2    12 1   
     7     2    13 2   
     8     3    11 1   
     9     3    14 1   
    10     3    24 1   
    11     3    25 1   
    12     4    12 1   
    13     4    14 1   
    14     4    22 2   
    15     5    17 ar  
    16     5    19 ar  
    17     6    17 ar  
    18     6    18 ar  
    19     6    26 1   
    20     7    21 2   
    21     7    52 1   
    22     7    53 1   
    23     8     9 1   
    24     8    16 1   
    25     8    50 1   
    26     9    30 1   
    27     9    31 1   
    28     9    52 1   
    29    10    11 1   
    30    10    36 1   
    31    10    54 1   
    32    11    12 1   
    33    11    37 1   
    34    12    15 1   
    35    13    38 1   
    36    14    39 1   
    37    14    40 1   
    38    15    41 1   
    39    15    42 1   
    40    15    43 1   
    41    16    44 1   
    42    16    45 1   
    43    16    46 1   
    44    17    47 1   
    45    18    20 ar  
    46    18    48 1   
    47    19    20 ar  
    48    19    49 1   
    49    27    52 1   
    50    28    52 1   
    51    29    53 1   
    52    32    51 1   
    53    33    51 1   
    54    34    54 1   
    55    35    54 1   
    56    50    51 1   
    57    50    53 2   
    58    51    54 1   
@<TRIPOS>SUBSTRUCTURE
     1 WOL         1 TEMP              0 ****  ****    0 ROOT
