@<TRIPOS>MOLECULE
WOM
   15    15     1     0     0
SMALL
abcg2


@<TRIPOS>ATOM
      1 C01          3.1500    48.9060    43.6020 ca         1 WOM       0.375000
      2 C02          1.7960    49.2290    43.8150 ca         1 WOM      -0.009000
      3 C03          0.7990    48.2860    43.6620 ca         1 WOM       0.380500
      4 C05          2.3360    46.6920    43.1520 ca         1 WOM       0.492000
      5 C06          3.4030    47.5630    43.2660 ca         1 WOM      -0.061000
      6 C09         -0.6820    48.6020    43.8720 c          1 WOM       0.630500
      7 N04          1.0830    47.0250    43.3270 nb         1 WOM      -0.665000
      8 N13          4.1300    49.8140    43.6900 nv         1 WOM      -1.118000
      9 O10         -0.9970    48.9440    45.0200 o          1 WOM      -0.682500
     10 O11         -1.3930    48.4510    42.8690 o          1 WOM      -0.682500
     11 CL07         5.0250    47.0570    42.9860 cl         1 WOM      -0.225000
     12 CL08         2.6400    45.0370    42.7440 cl         1 WOM      -0.200000
     13 CL12         1.4060    50.8670    44.2140 cl         1 WOM      -0.203000
     14 H131         3.9410    50.7300    44.0600 hn         1 WOM       0.484500
     15 H132         5.0950    49.5300    43.6700 hn         1 WOM       0.484500
@<TRIPOS>BOND
     1     1     2 ar  
     2     1     5 ar  
     3     1     8 1   
     4     2     3 ar  
     5     2    13 1   
     6     3     6 1   
     7     3     7 ar  
     8     4     5 ar  
     9     4     7 ar  
    10     4    12 1   
    11     5    11 1   
    12     6     9 1   
    13     6    10 1   
    14     8    14 1   
    15     8    15 1   
@<TRIPOS>SUBSTRUCTURE
     1 WOM         1 TEMP              0 ****  ****    0 ROOT
