@<TRIPOS>MOLECULE
WOM
   15    15     1     0     0
SMALL
No Charge or Current Charge


@<TRIPOS>ATOM
      1 C01          3.1360    48.8900    43.5900 ca         1 WOM       0.375000
      2 C02          1.7900    49.2560    43.8020 ca         1 WOM      -0.009000
      3 C03          0.7820    48.2680    43.6610 ca         1 WOM       0.380500
      4 C05          2.3800    46.6550    43.1070 ca         1 WOM       0.492000
      5 C06          3.4440    47.5630    43.2420 ca         1 WOM      -0.061000
      6 C09         -0.7070    48.6270    43.8830 c          1 WOM       0.630500
      7 N04          1.0880    46.9820    43.3020 nb         1 WOM      -0.665000
      8 N13          4.1490    49.8220    43.7150 nv         1 WOM      -1.118000
      9 O10         -1.0410    49.1780    44.9280 o          1 WOM      -0.682500
     10 O11         -1.5310    48.2850    43.0370 o          1 WOM      -0.682500
     11 Cl07         5.1270    47.0510    42.9700 cl         1 WOM      -0.225000
     12 Cl08         2.6620    44.9740    42.6620 cl         1 WOM      -0.200000
     13 Cl12         1.3920    50.9480    44.1930 cl         1 WOM      -0.203000
     14 H131         3.9430    50.7290    44.1320 hn         1 WOM       0.484500
     15 H132         5.1180    49.5050    43.7250 hn         1 WOM       0.484500
@<TRIPOS>BOND
     1     1     2 ar  
     2     1     5 ar  
     3     1     8 1   
     4     2     3 ar  
     5     2    13 1   
     6     3     6 1   
     7     3     7 ar  
     8     4     5 ar  
     9     4     7 ar  
    10     4    12 1   
    11     5    11 1   
    12     6     9 1   
    13     6    10 1   
    14     8    14 1   
    15     8    15 1   
@<TRIPOS>SUBSTRUCTURE
     1 WOM         1 TEMP              0 ****  ****    0 ROOT
