@<TRIPOS>MOLECULE
WON
   27    29     1     0     0
SMALL
abcg2


@<TRIPOS>ATOM
      1 C01          5.5430     7.5180    22.1520 ca         1 WON       0.053100
      2 C02          4.9830     6.6800    23.1100 ca         1 WON       0.055100
      3 C05          3.8260     5.9800    22.8660 ca         1 WON      -0.097000
      4 C07          3.7930     6.9790    20.6370 ca         1 WON      -0.087300
      5 C10          3.1370     7.1350    19.2780 c3         1 WON      -0.062400
      6 C11          4.0350     6.6920    18.1610 ca         1 WON       0.235300
      7 C17          5.6760     5.9550    16.2420 ca         1 WON       0.217300
      8 C03          4.9780     7.6900    20.9130 ca         1 WON      -0.088000
      9 O04          6.6590     8.1250    22.6700 os         1 WON      -0.347100
     10 O06          5.7330     6.7290    24.2590 os         1 WON      -0.349100
     11 C08          6.9280     7.4450    23.9080 c5         1 WON       0.370600
     12 C09          3.2400     6.1440    21.6010 ca         1 WON      -0.097000
     13 C12          4.3090     5.3210    17.9040 ca         1 WON       0.336300
     14 N13          4.6130     7.6020    17.4050 nb         1 WON      -0.266000
     15 N14          5.1290     4.9560    16.9470 nb         1 WON      -0.268000
     16 O15          3.7110     4.4000    18.6490 oh         1 WON      -0.619300
     17 N16          5.4520     7.2490    16.4240 nb         1 WON      -0.090000
     18 S18          6.7990     5.5790    14.9380 sh         1 WON      -0.292100
     19 H20          3.3880     5.3320    23.6130 ha         1 WON       0.135000
     20 H24          2.2130     6.5560    19.2560 hc         1 WON       0.075200
     21 H25          2.8830     8.1810    19.0980 hc         1 WON       0.075200
     22 H19          5.4240     8.3470    20.1780 ha         1 WON       0.144000
     23 H22          7.7460     6.7350    23.7600 h2         1 WON       0.068200
     24 H21          7.1550     8.1760    24.6810 h2         1 WON       0.068200
     25 H23          2.3340     5.5990    21.3690 ha         1 WON       0.120000
     26 H26          3.9840     3.5150    18.3500 ho         1 WON       0.495000
     27 H27          6.7260     4.2460    15.0900 hs         1 WON       0.211800
@<TRIPOS>BOND
     1     1     2 ar  
     2     1     8 ar  
     3     1     9 1   
     4     2     3 ar  
     5     2    10 1   
     6     3    12 ar  
     7     3    19 1   
     8     4     5 1   
     9     4     8 ar  
    10     4    12 ar  
    11     5     6 1   
    12     5    20 1   
    13     5    21 1   
    14     6    13 ar  
    15     6    14 ar  
    16     7    15 ar  
    17     7    17 ar  
    18     7    18 1   
    19     8    22 1   
    20     9    11 1   
    21    10    11 1   
    22    11    23 1   
    23    11    24 1   
    24    12    25 1   
    25    13    15 ar  
    26    13    16 1   
    27    14    17 ar  
    28    16    26 1   
    29    18    27 1   
@<TRIPOS>SUBSTRUCTURE
     1 WON         1 TEMP              0 ****  ****    0 ROOT
