@<TRIPOS>MOLECULE
WON
   27    29     1     0     0
SMALL
No Charge or Current Charge


@<TRIPOS>ATOM
      1 C01          5.5510     7.6880    22.3610 ca         1 WON       0.053100
      2 C02          5.2080     6.6070    23.1230 ca         1 WON       0.055100
      3 C05          4.2460     5.6840    22.6960 ca         1 WON      -0.097000
      4 C07          3.9780     7.0210    20.6520 ca         1 WON      -0.087300
      5 C10          3.3140     7.2410    19.2990 c3         1 WON      -0.062400
      6 C11          4.1440     6.6610    18.1580 ca         1 WON       0.235300
      7 C17          5.6520     5.7280    16.1690 ca         1 WON       0.217300
      8 C03          4.9580     7.9290    21.1150 ca         1 WON      -0.088000
      9 O04          6.5080     8.4510    22.9470 os         1 WON      -0.347100
     10 O06          5.9040     6.5500    24.2860 os         1 WON      -0.349100
     11 C08          6.7180     7.7760    24.2380 c5         1 WON       0.370600
     12 C09          3.6280     5.8990    21.4460 ca         1 WON      -0.097000
     13 C12          4.0110     5.3190    17.7020 ca         1 WON       0.336300
     14 N13          5.0510     7.4860    17.5780 nb         1 WON      -0.266000
     15 N14          4.7740     4.8490    16.6950 nb         1 WON      -0.268000
     16 O15          3.1150     4.4400    18.2440 oh         1 WON      -0.619300
     17 N16          5.8130     7.0100    16.5710 nb         1 WON      -0.090000
     18 S18          6.6780     5.1470    14.8400 sh         1 WON      -0.292100
     19 H20          3.9860     4.8260    23.3120 ha         1 WON       0.135000
     20 H24          2.3100     6.7990    19.2930 hc         1 WON       0.075200
     21 H25          3.1530     8.3140    19.1340 hc         1 WON       0.075200
     22 H19          5.2520     8.7930    20.5240 ha         1 WON       0.144000
     23 H22          7.7780     7.5180    24.3500 h2         1 WON       0.068200
     24 H21          6.4070     8.4460    25.0480 h2         1 WON       0.068200
     25 H23          2.8790     5.1940    21.0920 ha         1 WON       0.120000
     26 H26          3.2200     3.5940    17.7580 ho         1 WON       0.495000
     27 H27          6.1590     3.8970    14.8280 hs         1 WON       0.211800
@<TRIPOS>BOND
     1     1     2 ar  
     2     1     8 ar  
     3     1     9 1   
     4     2     3 ar  
     5     2    10 1   
     6     3    12 ar  
     7     3    19 1   
     8     4     5 1   
     9     4     8 ar  
    10     4    12 ar  
    11     5     6 1   
    12     5    20 1   
    13     5    21 1   
    14     6    13 ar  
    15     6    14 ar  
    16     7    15 ar  
    17     7    17 ar  
    18     7    18 1   
    19     8    22 1   
    20     9    11 1   
    21    10    11 1   
    22    11    23 1   
    23    11    24 1   
    24    12    25 1   
    25    13    15 ar  
    26    13    16 1   
    27    14    17 ar  
    28    16    26 1   
    29    18    27 1   
@<TRIPOS>SUBSTRUCTURE
     1 WON         1 TEMP              0 ****  ****    0 ROOT
