@<TRIPOS>MOLECULE
WOO
   24    24     1     0     0
SMALL
bcc


@<TRIPOS>ATOM
      1 C1           0.9570    -1.1270    -0.1990 c6         1 WOO       0.317900
      2 O1           1.5780    -2.3040     0.1760 oh         1 WOO      -0.590800
      3 C2           1.6530     0.0290     0.5120 c6         1 WOO       0.084100
      4 O2           2.9900     0.1760     0.1010 oh         1 WOO      -0.605800
      5 C3           0.9270     1.3330     0.1940 c6         1 WOO       0.120100
      6 O3           1.0280     1.6610    -1.1710 oh         1 WOO      -0.585800
      7 C4          -0.5540     1.1860     0.5430 c6         1 WOO       0.121100
      8 O4          -1.2980     2.3130     0.1570 oh         1 WOO      -0.575800
      9 C5          -1.1490    -0.0470    -0.1430 c6         1 WOO       0.162100
     10 O5          -0.3870    -1.1830     0.2160 os         1 WOO      -0.428600
     11 C6          -2.5780    -0.2970     0.2920 c3         1 WOO       0.146400
     12 O6          -3.0870    -1.3990    -0.4220 oh         1 WOO      -0.587800
     13 H1           1.0040    -0.9790    -1.2900 h2         1 WOO       0.042700
     14 H2           1.3910    -2.9890    -0.4750 ho         1 WOO       0.426000
     15 H3           1.5830    -0.1500     1.5960 h1         1 WOO       0.061700
     16 H4           3.4500    -0.6560     0.2490 ho         1 WOO       0.429000
     17 H5           1.3560     2.1320     0.8190 h1         1 WOO       0.044700
     18 H6           1.9610     1.6440    -1.4120 ho         1 WOO       0.422000
     19 H7          -0.6160     1.0240     1.6290 h1         1 WOO       0.041700
     20 H8          -1.0470     3.0520     0.7200 ho         1 WOO       0.409000
     21 H9          -1.1280     0.0980    -1.2340 h1         1 WOO       0.077700
     22 H10         -2.5960    -0.4720     1.3770 h1         1 WOO       0.033700
     23 H11         -3.1600     0.6110     0.1040 h1         1 WOO       0.033700
     24 H12         -4.0110    -1.5070    -0.1790 ho         1 WOO       0.404000
@<TRIPOS>BOND
     1     1     2 1   
     2     1     3 1   
     3     1    10 1   
     4     1    13 1   
     5     2    14 1   
     6     3     4 1   
     7     3     5 1   
     8     3    15 1   
     9     4    16 1   
    10     5     6 1   
    11     5     7 1   
    12     5    17 1   
    13     6    18 1   
    14     7     8 1   
    15     7     9 1   
    16     7    19 1   
    17     8    20 1   
    18     9    10 1   
    19     9    11 1   
    20     9    21 1   
    21    11    12 1   
    22    11    22 1   
    23    11    23 1   
    24    12    24 1   
@<TRIPOS>SUBSTRUCTURE
     1 WOO         1 TEMP              0 ****  ****    0 ROOT
