@<TRIPOS>MOLECULE
WOO
   24    24     1     0     0
SMALL
No Charge or Current Charge


@<TRIPOS>ATOM
      1 C1           1.0200    -1.0580    -0.3370 c6         1 WOO       0.364300
      2 O1           1.6240    -2.3150    -0.1150 oh         1 WOO      -0.713000
      3 C2           1.7220     0.0600     0.5050 c6         1 WOO       0.107300
      4 O2           3.0950     0.2630     0.0880 oh         1 WOO      -0.728000
      5 C3           0.9230     1.3920     0.4060 c6         1 WOO       0.143300
      6 O3           1.1050     1.9790    -0.8970 oh         1 WOO      -0.708000
      7 C4          -0.5940     1.1650     0.6930 c6         1 WOO       0.144300
      8 O4          -1.2980     2.3830     0.3970 oh         1 WOO      -0.698000
      9 C5          -1.1470    -0.0410    -0.1390 c6         1 WOO       0.185300
     10 O5          -0.3310    -1.2220     0.0890 os         1 WOO      -0.475000
     11 C6          -2.6290    -0.3840     0.2280 c3         1 WOO       0.169600
     12 O6          -3.1500    -1.5230    -0.4900 oh         1 WOO      -0.710000
     13 H1           1.0460    -0.8080    -1.4100 h2         1 WOO       0.042700
     14 H2           0.8500    -2.9040     0.0260 ho         1 WOO       0.525000
     15 H3           1.7010    -0.2610     1.5580 h1         1 WOO       0.061700
     16 H4           3.4970    -0.6400     0.0440 ho         1 WOO       0.528000
     17 H5           1.3160     2.0770     1.1730 h1         1 WOO       0.044700
     18 H6           2.0590     1.8120    -1.1020 ho         1 WOO       0.521000
     19 H7          -0.7080     0.9200     1.7600 h1         1 WOO       0.041700
     20 H8          -0.7400     2.8080    -0.3010 ho         1 WOO       0.508000
     21 H9          -1.1140     0.2110    -1.2090 h1         1 WOO       0.077700
     22 H10         -2.6770    -0.5690     1.3100 h1         1 WOO       0.033700
     23 H11         -3.2480     0.5000     0.0230 h1         1 WOO       0.033700
     24 H12         -4.0550    -1.6940    -0.1400 ho         1 WOO       0.503000
@<TRIPOS>BOND
     1     1     2 1   
     2     1     3 1   
     3     1    10 1   
     4     1    13 1   
     5     2    14 1   
     6     3     4 1   
     7     3     5 1   
     8     3    15 1   
     9     4    16 1   
    10     5     6 1   
    11     5     7 1   
    12     5    17 1   
    13     6    18 1   
    14     7     8 1   
    15     7     9 1   
    16     7    19 1   
    17     8    20 1   
    18     9    10 1   
    19     9    11 1   
    20     9    21 1   
    21    11    12 1   
    22    11    22 1   
    23    11    23 1   
    24    12    24 1   
@<TRIPOS>SUBSTRUCTURE
     1 WOO         1 TEMP              0 ****  ****    0 ROOT
