@<TRIPOS>MOLECULE
WOP
   59    62     1     0     0
SMALL
No Charge or Current Charge


@<TRIPOS>ATOM
      1 C1          -8.0460    -0.1070     1.6130 ca         1 WOP      -0.112000
      2 C2          -4.0290    -3.3330    -1.9360 ca         1 WOP      -0.111000
      3 C3          -8.1340     0.3640     0.2920 ca         1 WOP      -0.110000
      4 C4          -6.9480     0.2520     2.4130 ca         1 WOP      -0.110000
      5 C5          -3.3910    -2.5510    -2.9130 ca         1 WOP      -0.113500
      6 C6          -3.9520    -2.9650    -0.5830 ca         1 WOP      -0.113500
      7 C7          -7.1250     1.1940    -0.2290 ca         1 WOP      -0.097000
      8 C8          -5.9400     1.0820     1.8930 ca         1 WOP      -0.097000
      9 C9          -2.6780    -1.3990    -2.5370 ca         1 WOP      -0.088000
     10 C10         -3.2380    -1.8140    -0.2060 ca         1 WOP      -0.088000
     11 C11          3.8730     1.0530    -0.8050 ca         1 WOP      -0.132000
     12 C12          4.8150     2.0950    -0.6990 ca         1 WOP      -0.130000
     13 C13          5.1220    -0.2830     0.8380 ca         1 WOP      -0.100600
     14 C14         -6.0240     1.5600     0.5700 ca         1 WOP      -0.100300
     15 C15         -2.5990    -1.0210    -1.1820 ca         1 WOP      -0.098300
     16 C16          4.0120    -0.1370    -0.0450 ca         1 WOP      -0.079300
     17 C17          5.8860     1.9230     0.1820 ca         1 WOP       0.021100
     18 C18          6.0340     0.7820     0.9210 ca         1 WOP       0.070100
     19 C20         -2.7370     1.2030     0.0490 c          1 WOP       0.591100
     20 C21          0.5700    -0.5180    -0.6020 c          1 WOP       0.657100
     21 C22          7.6680     2.1740     1.4600 c5         1 WOP       0.369600
     22 C23          1.4480    -0.6700     1.7630 c3         1 WOP       0.088300
     23 C24         -4.9250     2.4460     0.0030 c3         1 WOP       0.153300
     24 C25          2.9470    -1.2260    -0.1950 c3         1 WOP       0.160300
     25 C26         -1.8330     0.2400    -0.7770 c3         1 WOP       0.105000
     26 N27         -3.8690     1.6400    -0.6070 ns         1 WOP      -0.500900
     27 N28         -0.6070    -0.1060    -0.0330 ns         1 WOP      -0.529900
     28 N29          1.6140    -0.8030     0.2970 n          1 WOP      -0.420800
     29 O30          5.6830    -2.5430     1.0820 o          1 WOP      -0.707000
     30 O31          5.1550    -1.4550     2.8690 o          1 WOP      -0.707000
     31 O32         -2.4860     1.5360     1.2020 o          1 WOP      -0.600100
     32 O33          0.6950    -0.6220    -1.8120 o          1 WOP      -0.637100
     33 O34          6.8890     2.8130     0.3890 os         1 WOP      -0.371100
     34 O35          7.1610     0.8130     1.6810 os         1 WOP      -0.310100
     35 H1          -8.8260    -0.7500     2.0150 ha         1 WOP       0.108000
     36 H3          -8.9820     0.0850    -0.3300 ha         1 WOP       0.110000
     37 H4          -6.8770    -0.1140     3.4350 ha         1 WOP       0.110000
     38 H2          -4.5810    -4.2240    -2.2280 ha         1 WOP       0.106000
     39 H5          -3.4480    -2.8370    -3.9610 ha         1 WOP       0.109500
     40 H6          -4.4440    -3.5710     0.1740 ha         1 WOP       0.109500
     41 H7          -7.1990     1.5510    -1.2540 ha         1 WOP       0.114500
     42 H8          -5.0910     1.3520     2.5170 ha         1 WOP       0.114500
     43 H9          -2.1850    -0.8020    -3.3020 ha         1 WOP       0.117000
     44 H10         -3.1850    -1.5390     0.8450 ha         1 WOP       0.117000
     45 H11          3.0290     1.1680    -1.4810 ha         1 WOP       0.098000
     46 H12          4.7140     3.0060    -1.2840 ha         1 WOP       0.105000
     47 H241        -5.3440     3.1130    -0.7620 h1         1 WOP       0.056200
     48 H242        -4.5020     3.0770     0.7970 h1         1 WOP       0.056200
     49 H26         -1.5460     0.7930    -1.6810 h1         1 WOP       0.079700
     50 H251         2.8900    -1.5130    -1.2530 h1         1 WOP       0.092200
     51 H252         3.2370    -2.1350     0.3450 h1         1 WOP       0.092200
     52 H27         -4.0140     1.2930    -1.5470 hn         1 WOP       0.319500
     53 H28         -0.6180    -0.0100     0.9740 hn         1 WOP       0.335500
     54 H221         8.7260     2.1350     1.1780 h2         1 WOP       0.041200
     55 H222         7.5430     2.7520     2.3830 h2         1 WOP       0.041200
     56 H231         0.6300    -1.3160     2.1060 h1         1 WOP       0.033367
     57 H232         2.3690    -0.9670     2.2810 h1         1 WOP       0.033367
     58 H233         1.2240     0.3730     2.0180 h1         1 WOP       0.033367
     59 C19          5.3480    -1.5190     1.6630 c          1 WOP       0.717600
@<TRIPOS>BOND
     1     1     3 ar  
     2     1     4 ar  
     3     1    35 1   
     4     2     5 ar  
     5     2     6 ar  
     6     2    38 1   
     7     3     7 ar  
     8     3    36 1   
     9     4     8 ar  
    10     4    37 1   
    11     5     9 ar  
    12     5    39 1   
    13     6    10 ar  
    14     6    40 1   
    15     7    14 ar  
    16     7    41 1   
    17     8    14 ar  
    18     8    42 1   
    19     9    15 ar  
    20     9    43 1   
    21    10    15 ar  
    22    10    44 1   
    23    11    12 ar  
    24    11    16 ar  
    25    11    45 1   
    26    12    17 ar  
    27    12    46 1   
    28    13    16 ar  
    29    13    18 ar  
    30    13    59 1   
    31    14    23 1   
    32    15    25 1   
    33    16    24 1   
    34    17    18 ar  
    35    17    33 1   
    36    18    34 1   
    37    19    25 1   
    38    19    26 1   
    39    19    31 2   
    40    20    27 1   
    41    20    28 1   
    42    20    32 2   
    43    21    33 1   
    44    21    34 1   
    45    21    54 1   
    46    21    55 1   
    47    22    28 1   
    48    22    56 1   
    49    22    57 1   
    50    22    58 1   
    51    23    26 1   
    52    23    47 1   
    53    23    48 1   
    54    24    28 1   
    55    24    50 1   
    56    24    51 1   
    57    25    27 1   
    58    25    49 1   
    59    26    52 1   
    60    27    53 1   
    61    29    59 1   
    62    30    59 1   
@<TRIPOS>SUBSTRUCTURE
     1 WOP         1 TEMP              0 ****  ****    0 ROOT
