@<TRIPOS>MOLECULE
WOP
   59    62     1     0     0
SMALL
abcg2


@<TRIPOS>ATOM
      1 C1          -7.8420    -0.4610     1.2060 ca         1 WOP      -0.112000
      2 C2          -3.8330    -3.0640    -1.8910 ca         1 WOP      -0.111000
      3 C3          -6.9430    -0.8050     0.2060 ca         1 WOP      -0.110000
      4 C4          -7.8050     0.8180     1.7490 ca         1 WOP      -0.110000
      5 C5          -3.4780    -2.0850    -2.8090 ca         1 WOP      -0.113500
      6 C6          -3.4890    -2.9090    -0.5540 ca         1 WOP      -0.113500
      7 C7          -6.0170     0.1220    -0.2550 ca         1 WOP      -0.097000
      8 C8          -6.8730     1.7400     1.2920 ca         1 WOP      -0.097000
      9 C9          -2.7870    -0.9560    -2.3890 ca         1 WOP      -0.088000
     10 C10         -2.8020    -1.7790    -0.1360 ca         1 WOP      -0.088000
     11 C11          3.4910     1.2260     0.3750 ca         1 WOP      -0.132000
     12 C12          4.4970     2.1910     0.2360 ca         1 WOP      -0.130000
     13 C13          5.1060    -0.5880     0.4750 ca         1 WOP      -0.100600
     14 C14         -5.9720     1.4040     0.2860 ca         1 WOP      -0.100300
     15 C15         -2.4480    -0.7930    -1.0520 ca         1 WOP      -0.098300
     16 C16          3.7670    -0.1300     0.4820 ca         1 WOP      -0.079300
     17 C17          5.7860     1.7320     0.2260 ca         1 WOP       0.021100
     18 C18          6.0770     0.3830     0.3630 ca         1 WOP       0.070100
     19 C20         -2.8770     1.3010     0.1270 c          1 WOP       0.591100
     20 C21          0.4440    -0.3020    -0.0420 c          1 WOP       0.657100
     21 C22          7.9880     1.5170     0.3320 c5         1 WOP       0.369600
     22 C23          1.1250    -0.1330     2.3150 c3         1 WOP       0.088300
     23 C24         -4.9970     2.4440    -0.2180 c3         1 WOP       0.153300
     24 C25          2.6310    -1.1270     0.6140 c3         1 WOP       0.160300
     25 C26         -1.7870     0.4880    -0.5760 c3         1 WOP       0.105000
     26 N27         -3.7540     1.8890    -0.6960 ns         1 WOP      -0.500900
     27 N28         -0.7180     0.2840     0.3550 ns         1 WOP      -0.529900
     28 N29          1.3570    -0.5270     0.9420 n          1 WOP      -0.420800
     29 O30          4.8440    -2.8520    -0.1260 o          1 WOP      -0.707000
     30 O31          6.4460    -2.3200     1.3330 o          1 WOP      -0.707000
     31 O32         -2.9580     1.3470     1.3440 o          1 WOP      -0.600100
     32 O33          0.6400    -0.5920    -1.2190 o          1 WOP      -0.637100
     33 O34          6.9370     2.4350     0.0680 os         1 WOP      -0.371100
     34 O35          7.4250     0.2170     0.2900 os         1 WOP      -0.310100
     35 H1          -8.5620    -1.1840     1.5660 ha         1 WOP       0.108000
     36 H3          -6.9580    -1.8000    -0.2190 ha         1 WOP       0.110000
     37 H4          -8.4950     1.0940     2.5350 ha         1 WOP       0.110000
     38 H2          -4.3700    -3.9450    -2.2160 ha         1 WOP       0.106000
     39 H5          -3.7340    -2.2020    -3.8540 ha         1 WOP       0.109500
     40 H6          -3.7620    -3.6680     0.1680 ha         1 WOP       0.109500
     41 H7          -5.3190    -0.1720    -1.0300 ha         1 WOP       0.114500
     42 H8          -6.8410     2.7320     1.7290 ha         1 WOP       0.114500
     43 H9          -2.5100    -0.1970    -3.1130 ha         1 WOP       0.117000
     44 H10         -2.5450    -1.6650     0.9100 ha         1 WOP       0.117000
     45 H11          2.4650     1.5690     0.4040 ha         1 WOP       0.098000
     46 H12          4.2600     3.2410     0.1370 ha         1 WOP       0.105000
     47 H241        -5.4400     2.9910    -1.0510 h1         1 WOP       0.056200
     48 H242        -4.8040     3.1780     0.5670 h1         1 WOP       0.056200
     49 H26         -1.4310     1.0460    -1.4470 h1         1 WOP       0.079700
     50 H251         2.5300    -1.6940    -0.3080 h1         1 WOP       0.092200
     51 H252         2.8640    -1.8580     1.3900 h1         1 WOP       0.092200
     52 H27         -3.6230     1.8050    -1.6910 hn         1 WOP       0.319500
     53 H28         -0.9310     0.4600     1.3240 hn         1 WOP       0.335500
     54 H221         8.7610     1.6110    -0.4300 h2         1 WOP       0.041200
     55 H222         8.4090     1.7100     1.3260 h2         1 WOP       0.041200
     56 H231         0.2950    -0.6830     2.7670 h1         1 WOP       0.033367
     57 H232         2.0140    -0.3510     2.9000 h1         1 WOP       0.033367
     58 H233         0.9310     0.9380     2.4160 h1         1 WOP       0.033367
     59 C19          5.4980    -2.0550     0.5730 c          1 WOP       0.717600
@<TRIPOS>BOND
     1     1     3 ar  
     2     1     4 ar  
     3     1    35 1   
     4     2     5 ar  
     5     2     6 ar  
     6     2    38 1   
     7     3     7 ar  
     8     3    36 1   
     9     4     8 ar  
    10     4    37 1   
    11     5     9 ar  
    12     5    39 1   
    13     6    10 ar  
    14     6    40 1   
    15     7    14 ar  
    16     7    41 1   
    17     8    14 ar  
    18     8    42 1   
    19     9    15 ar  
    20     9    43 1   
    21    10    15 ar  
    22    10    44 1   
    23    11    12 ar  
    24    11    16 ar  
    25    11    45 1   
    26    12    17 ar  
    27    12    46 1   
    28    13    16 ar  
    29    13    18 ar  
    30    13    59 1   
    31    14    23 1   
    32    15    25 1   
    33    16    24 1   
    34    17    18 ar  
    35    17    33 1   
    36    18    34 1   
    37    19    25 1   
    38    19    26 1   
    39    19    31 2   
    40    20    27 1   
    41    20    28 1   
    42    20    32 2   
    43    21    33 1   
    44    21    34 1   
    45    21    54 1   
    46    21    55 1   
    47    22    28 1   
    48    22    56 1   
    49    22    57 1   
    50    22    58 1   
    51    23    26 1   
    52    23    47 1   
    53    23    48 1   
    54    24    28 1   
    55    24    50 1   
    56    24    51 1   
    57    25    27 1   
    58    25    49 1   
    59    26    52 1   
    60    27    53 1   
    61    29    59 1   
    62    30    59 1   
@<TRIPOS>SUBSTRUCTURE
     1 WOP         1 TEMP              0 ****  ****    0 ROOT
