@<TRIPOS>MOLECULE
WOQ
   39    42     1     0     0
SMALL
No Charge or Current Charge


@<TRIPOS>ATOM
      1 N          144.5610   131.3670    98.7440 n3         1 WOQ      -0.713600
      2 C          145.9480   131.6380    98.3090 c3         1 WOQ       0.154100
      3 C1         143.7130   132.5770    98.7650 c6         1 WOQ       0.165800
      4 C10        140.1230   127.9250    96.0040 ca         1 WOQ      -0.108000
      5 C11        140.6400   129.0460    96.6840 ca         1 WOQ      -0.063300
      6 C12        139.8980   130.3730    96.6040 c3         1 WOQ       0.011200
      7 C13        139.3190   130.7260    97.9650 ca         1 WOQ      -0.063300
      8 C14        137.9230   130.7250    98.1580 ca         1 WOQ      -0.107000
      9 C15        137.3790   131.0360    99.4140 ca         1 WOQ      -0.106000
     10 C16        138.2290   131.3450   100.4860 ca         1 WOQ      -0.114000
     11 C17        139.6210   131.3450   100.3010 ca         1 WOQ      -0.098000
     12 C18        140.1790   131.0350    99.0420 ca         1 WOQ      -0.042800
     13 C2         142.3800   132.2610    99.4690 c6         1 WOQ      -0.035200
     14 C3         141.6640   131.0520    98.8500 ce         1 WOQ      -0.041400
     15 C4         142.3880   130.1120    98.1580 cf         1 WOQ      -0.053400
     16 C5         143.9220   130.2710    97.9660 c6         1 WOQ       0.204000
     17 C6         141.8300   128.9310    97.4440 ca         1 WOQ      -0.039800
     18 C7         142.4700   127.6700    97.5130 ca         1 WOQ      -0.099000
     19 C8         141.9480   126.5590    96.8320 ca         1 WOQ      -0.114000
     20 C9         140.7770   126.6860    96.0740 ca         1 WOQ      -0.105000
     21 H2         146.4150   132.3960    98.9530 h1         1 WOQ       0.031033
     22 H3         146.5560   130.7260    98.3640 h1         1 WOQ       0.031033
     23 H4         145.9700   132.0050    97.2740 h1         1 WOQ       0.031033
     24 H5         144.2140   133.3930    99.3060 h1         1 WOQ       0.033700
     25 H6         143.5160   132.9290    97.7420 h1         1 WOQ       0.033700
     26 H7         139.2080   128.0110    95.4220 ha         1 WOQ       0.111000
     27 H8         140.5760   131.1650    96.2640 hc         1 WOQ       0.057700
     28 H9         139.1050   130.3270    95.8480 hc         1 WOQ       0.057700
     29 H10        137.2560   130.4810    97.3340 ha         1 WOQ       0.111000
     30 H11        136.3000   131.0330    99.5570 ha         1 WOQ       0.112000
     31 H12        137.8100   131.5830   101.4620 ha         1 WOQ       0.112000
     32 H13        140.2660   131.5780   101.1450 ha         1 WOQ       0.113000
     33 H14        142.5740   132.0630   100.5320 hc         1 WOQ       0.056200
     34 H15        141.7340   133.1480    99.4270 hc         1 WOQ       0.056200
     35 H16        144.4340   129.3340    98.2200 h1         1 WOQ       0.041700
     36 H17        144.0970   130.4340    96.8920 h1         1 WOQ       0.041700
     37 H18        143.3630   127.5310    98.1140 ha         1 WOQ       0.114000
     38 H19        142.4510   125.5960    96.8980 ha         1 WOQ       0.112000
     39 H20        140.3710   125.8240    95.5480 ha         1 WOQ       0.112000
@<TRIPOS>BOND
     1     1     2 1   
     2     1     3 1   
     3     1    16 1   
     4     2    21 1   
     5     2    22 1   
     6     2    23 1   
     7     3    13 1   
     8     3    24 1   
     9     3    25 1   
    10     4     5 ar  
    11     4    20 ar  
    12     4    26 1   
    13     5     6 1   
    14     5    17 ar  
    15     6     7 1   
    16     6    27 1   
    17     6    28 1   
    18     7     8 ar  
    19     7    12 ar  
    20     8     9 ar  
    21     8    29 1   
    22     9    10 ar  
    23     9    30 1   
    24    10    11 ar  
    25    10    31 1   
    26    11    12 ar  
    27    11    32 1   
    28    12    14 1   
    29    13    14 1   
    30    13    33 1   
    31    13    34 1   
    32    14    15 2   
    33    15    16 1   
    34    15    17 1   
    35    16    35 1   
    36    16    36 1   
    37    17    18 ar  
    38    18    19 ar  
    39    18    37 1   
    40    19    20 ar  
    41    19    38 1   
    42    20    39 1   
@<TRIPOS>SUBSTRUCTURE
     1 WOQ         1 TEMP              0 ****  ****    0 ROOT
