@<TRIPOS>MOLECULE
WOQ
   39    42     1     0     0
SMALL
abcg2


@<TRIPOS>ATOM
      1 N          144.4790   131.3300    98.7620 n3         1 WOQ      -0.713600
      2 C          145.8710   131.5270    98.4340 c3         1 WOQ       0.154100
      3 C1         143.7230   132.5620    98.7500 c6         1 WOQ       0.165800
      4 C10        140.1110   127.9540    96.0420 ca         1 WOQ      -0.108000
      5 C11        140.6230   129.0910    96.6590 ca         1 WOQ      -0.063300
      6 C12        139.8920   130.3980    96.5760 c3         1 WOQ       0.011200
      7 C13        139.3370   130.7070    97.9350 ca         1 WOQ      -0.063300
      8 C14        137.9690   130.6480    98.1840 ca         1 WOQ      -0.107000
      9 C15        137.4620   130.9150    99.4470 ca         1 WOQ      -0.106000
     10 C16        138.3310   131.2450   100.4780 ca         1 WOQ      -0.114000
     11 C17        139.6940   131.3060   100.2390 ca         1 WOQ      -0.098000
     12 C18        140.2210   131.0240    98.9750 ca         1 WOQ      -0.042800
     13 C2         142.3590   132.3130    99.3590 c6         1 WOQ      -0.035200
     14 C3         141.6760   131.1160    98.7470 ce         1 WOQ      -0.041400
     15 C4         142.3880   130.2010    98.0610 cf         1 WOQ      -0.053400
     16 C5         143.8790   130.3520    97.8870 c6         1 WOQ       0.204000
     17 C6         141.8030   129.0070    97.4140 ca         1 WOQ      -0.039800
     18 C7         142.4320   127.7620    97.5220 ca         1 WOQ      -0.099000
     19 C8         141.9130   126.6340    96.9070 ca         1 WOQ      -0.114000
     20 C9         140.7500   126.7300    96.1550 ca         1 WOQ      -0.105000
     21 H2         146.3240   132.2310    99.1350 h1         1 WOQ       0.031033
     22 H3         146.4130   130.5830    98.5140 h1         1 WOQ       0.031033
     23 H4         146.0300   131.9160    97.4160 h1         1 WOQ       0.031033
     24 H5         144.2560   133.3140    99.3350 h1         1 WOQ       0.033700
     25 H6         143.6140   132.9690    97.7290 h1         1 WOQ       0.033700
     26 H7         139.1990   128.0360    95.4620 ha         1 WOQ       0.111000
     27 H8         140.5710   131.1950    96.2550 hc         1 WOQ       0.057700
     28 H9         139.0890   130.3370    95.8410 hc         1 WOQ       0.057700
     29 H10        137.2960   130.3960    97.3730 ha         1 WOQ       0.111000
     30 H11        136.3950   130.8690    99.6230 ha         1 WOQ       0.112000
     31 H12        137.9480   131.4560   101.4690 ha         1 WOQ       0.112000
     32 H13        140.3590   131.5610   101.0550 ha         1 WOQ       0.113000
     33 H14        142.4650   132.1760   100.4390 hc         1 WOQ       0.056200
     34 H15        141.7290   133.1970    99.2250 hc         1 WOQ       0.056200
     35 H16        144.3750   129.3940    98.0630 h1         1 WOQ       0.041700
     36 H17        144.0640   130.5860    96.8200 h1         1 WOQ       0.041700
     37 H18        143.3320   127.6600    98.1150 ha         1 WOQ       0.114000
     38 H19        142.4160   125.6820    97.0170 ha         1 WOQ       0.112000
     39 H20        140.3410   125.8560    95.6640 ha         1 WOQ       0.112000
@<TRIPOS>BOND
     1     1     2 1   
     2     1     3 1   
     3     1    16 1   
     4     2    21 1   
     5     2    22 1   
     6     2    23 1   
     7     3    13 1   
     8     3    24 1   
     9     3    25 1   
    10     4     5 ar  
    11     4    20 ar  
    12     4    26 1   
    13     5     6 1   
    14     5    17 ar  
    15     6     7 1   
    16     6    27 1   
    17     6    28 1   
    18     7     8 ar  
    19     7    12 ar  
    20     8     9 ar  
    21     8    29 1   
    22     9    10 ar  
    23     9    30 1   
    24    10    11 ar  
    25    10    31 1   
    26    11    12 ar  
    27    11    32 1   
    28    12    14 1   
    29    13    14 1   
    30    13    33 1   
    31    13    34 1   
    32    14    15 2   
    33    15    16 1   
    34    15    17 1   
    35    16    35 1   
    36    16    36 1   
    37    17    18 ar  
    38    18    19 ar  
    39    18    37 1   
    40    19    20 ar  
    41    19    38 1   
    42    20    39 1   
@<TRIPOS>SUBSTRUCTURE
     1 WOQ         1 TEMP              0 ****  ****    0 ROOT
