@<TRIPOS>MOLECULE
WOR
   35    35     1     0     0
SMALL
abcg2


@<TRIPOS>ATOM
      1 O1          -3.9060    17.5760   -36.8000 o          1 WOR      -0.564000
      2 O           -1.4720    17.4500   -37.2160 o          1 WOR      -0.564000
      3 O2          -3.6200    13.9280   -34.1120 oh         1 WOR      -0.555100
      4 N1          -2.8740    15.5840   -38.0370 n3         1 WOR      -0.810500
      5 C7          -4.1280    14.8270   -37.9590 c3         1 WOR       0.192100
      6 C8          -2.2660    15.6820   -39.3990 c3         1 WOR       0.248500
      7 C9          -2.6570    16.9570   -40.1420 c3         1 WOR      -0.116100
      8 C1           0.2510    13.5690   -35.6290 ca         1 WOR      -0.079300
      9 C5          -1.7950    14.8350   -35.3020 ca         1 WOR       0.269000
     10 C6          -0.5040    14.7290   -35.8060 ca         1 WOR      -0.105000
     11 C4          -2.3450    13.7670   -34.5820 ca         1 WOR       0.085100
     12 C3          -1.5970    12.6160   -34.3830 ca         1 WOR      -0.168000
     13 C2          -0.3130    12.5170   -34.9110 ca         1 WOR      -0.092000
     14 S           -2.7120    16.7740   -36.9390 s6         1 WOR       1.325200
     15 C10         -0.7620    15.4330   -39.3860 c3         1 WOR      -0.116100
     16 N           -2.5910    15.9910   -35.4880 nu         1 WOR      -0.895100
     17 H1          -3.8910    13.1440   -33.6160 ho         1 WOR       0.470000
     18 H2          -4.4440    14.7260   -36.9230 h1         1 WOR       0.047033
     19 H3          -4.9300    15.3090   -38.5260 h1         1 WOR       0.047033
     20 H4          -3.9490    13.8300   -38.3580 h1         1 WOR       0.047033
     21 H5          -2.7280    14.8410   -39.9180 h1         1 WOR       0.048700
     22 H6          -3.7390    17.0980   -40.1310 hc         1 WOR       0.052033
     23 H7          -2.1860    17.8330   -39.6940 hc         1 WOR       0.052033
     24 H8          -2.3320    16.8900   -41.1810 hc         1 WOR       0.052033
     25 H9          -0.0880    15.5630   -36.3530 ha         1 WOR       0.143000
     26 H10         -2.0300    11.7920   -33.8290 ha         1 WOR       0.115000
     27 H11          0.2530    11.6060   -34.7590 ha         1 WOR       0.116000
     28 H12         -0.5290    14.5160   -38.8440 hc         1 WOR       0.052033
     29 H13         -0.4130    15.3230   -40.4150 hc         1 WOR       0.052033
     30 H14         -0.2230    16.2570   -38.9250 hc         1 WOR       0.052033
     31 H15         -3.4770    15.9780   -34.9970 hn         1 WOR       0.511000
     32 H16          2.3590    14.0230   -35.5570 hc         1 WOR       0.044700
     33 H17          1.9810    12.4430   -36.2420 hc         1 WOR       0.044700
     34 H18          1.7020    13.9140   -37.1860 hc         1 WOR       0.044700
     35 C            1.6480    13.4800   -36.1860 c3         1 WOR      -0.042800
@<TRIPOS>BOND
     1     1    14 2   
     2     2    14 2   
     3     3    11 1   
     4     3    17 1   
     5     4     5 1   
     6     4     6 1   
     7     4    14 1   
     8     5    18 1   
     9     5    19 1   
    10     5    20 1   
    11     6     7 1   
    12     6    15 1   
    13     6    21 1   
    14     7    22 1   
    15     7    23 1   
    16     7    24 1   
    17     8    10 ar  
    18     8    13 ar  
    19     8    35 1   
    20     9    10 ar  
    21     9    11 ar  
    22     9    16 1   
    23    10    25 1   
    24    11    12 ar  
    25    12    13 ar  
    26    12    26 1   
    27    13    27 1   
    28    14    16 1   
    29    15    28 1   
    30    15    29 1   
    31    15    30 1   
    32    16    31 1   
    33    32    35 1   
    34    33    35 1   
    35    34    35 1   
@<TRIPOS>SUBSTRUCTURE
     1 WOR         1 TEMP              0 ****  ****    0 ROOT
