@<TRIPOS>MOLECULE
WOR
   35    35     1     0     0
SMALL
No Charge or Current Charge


@<TRIPOS>ATOM
      1 O1          -3.6470    17.5360   -37.0700 o          1 WOR      -0.564000
      2 O           -1.0920    17.4560   -37.0820 o          1 WOR      -0.564000
      3 O2          -3.6800    14.1580   -33.9190 oh         1 WOR      -0.555100
      4 N1          -2.4440    15.5180   -38.1650 n3         1 WOR      -0.810500
      5 C7          -3.5980    14.6020   -38.0010 c3         1 WOR       0.192100
      6 C8          -2.1940    15.8690   -39.5890 c3         1 WOR       0.248500
      7 C9          -3.2390    16.8250   -40.2120 c3         1 WOR      -0.116100
      8 C1           0.1490    13.2780   -35.3900 ca         1 WOR      -0.079300
      9 C5          -1.7520    14.8140   -35.2430 ca         1 WOR       0.269000
     10 C6          -0.4660    14.5000   -35.7250 ca         1 WOR      -0.105000
     11 C4          -2.4220    13.8870   -34.4020 ca         1 WOR       0.085100
     12 C3          -1.8060    12.6690   -34.0650 ca         1 WOR      -0.168000
     13 C2          -0.5250    12.3670   -34.5570 ca         1 WOR      -0.092000
     14 S           -2.3920    16.7900   -37.0110 s6         1 WOR       1.325200
     15 C10         -0.7550    16.3430   -39.8810 c3         1 WOR      -0.116100
     16 N           -2.3820    16.0190   -35.5600 nu         1 WOR      -0.895100
     17 H1          -3.9650    13.4110   -33.3480 ho         1 WOR       0.470000
     18 H2          -3.6290    14.1570   -36.9990 h1         1 WOR       0.047033
     19 H3          -4.5490    15.1260   -38.1650 h1         1 WOR       0.047033
     20 H4          -3.5420    13.7710   -38.7160 h1         1 WOR       0.047033
     21 H5          -2.2830    14.9330   -40.1580 h1         1 WOR       0.048700
     22 H6          -4.2580    16.4520   -40.0640 hc         1 WOR       0.052033
     23 H7          -3.1690    17.8290   -39.7800 hc         1 WOR       0.052033
     24 H8          -3.0720    16.9130   -41.2920 hc         1 WOR       0.052033
     25 H9           0.0610    15.2040   -36.3610 ha         1 WOR       0.143000
     26 H10         -2.3140    11.9530   -33.4240 ha         1 WOR       0.115000
     27 H11         -0.0560    11.4220   -34.2900 ha         1 WOR       0.116000
     28 H12         -0.0270    15.7150   -39.3540 hc         1 WOR       0.052033
     29 H13         -0.5460    16.2720   -40.9550 hc         1 WOR       0.052033
     30 H14         -0.6020    17.3870   -39.5860 hc         1 WOR       0.052033
     31 H15         -3.3460    16.0700   -35.2690 hn         1 WOR       0.511000
     32 H16          2.3130    13.3590   -35.2610 hc         1 WOR       0.044700
     33 H17          1.6940    11.8690   -35.9950 hc         1 WOR       0.044700
     34 H18          1.6910    13.3750   -36.9210 hc         1 WOR       0.044700
     35 C            1.5370    12.9520   -35.9210 c3         1 WOR      -0.042800
@<TRIPOS>BOND
     1     1    14 2   
     2     2    14 2   
     3     3    11 1   
     4     3    17 1   
     5     4     5 1   
     6     4     6 1   
     7     4    14 1   
     8     5    18 1   
     9     5    19 1   
    10     5    20 1   
    11     6     7 1   
    12     6    15 1   
    13     6    21 1   
    14     7    22 1   
    15     7    23 1   
    16     7    24 1   
    17     8    10 ar  
    18     8    13 ar  
    19     8    35 1   
    20     9    10 ar  
    21     9    11 ar  
    22     9    16 1   
    23    10    25 1   
    24    11    12 ar  
    25    12    13 ar  
    26    12    26 1   
    27    13    27 1   
    28    14    16 1   
    29    15    28 1   
    30    15    29 1   
    31    15    30 1   
    32    16    31 1   
    33    32    35 1   
    34    33    35 1   
    35    34    35 1   
@<TRIPOS>SUBSTRUCTURE
     1 WOR         1 TEMP              0 ****  ****    0 ROOT
