@<TRIPOS>MOLECULE
WOS
   44    46     1     0     0
SMALL
bcc


@<TRIPOS>ATOM
      1 C07         -5.3550     3.1170    -0.6630 c3         1 WOS      -0.053800
      2 C06         -3.1530     0.0640    -0.3470 ca         1 WOS       0.462600
      3 C05         -3.5550     1.3590    -0.6200 ca         1 WOS      -0.299300
      4 C04         -4.8720     1.7370    -0.3390 ca         1 WOS       0.001700
      5 C03         -5.7120     0.7950     0.2200 ca         1 WOS      -0.315300
      6 C02         -5.2180    -0.4960     0.4710 ca         1 WOS       0.665200
      7 N02         -6.0060    -1.4390     1.0690 nv         1 WOS      -0.942500
      8 N01         -3.9690    -0.8470     0.1850 nb         1 WOS      -0.753000
      9 C09         -1.0410    -0.9750     0.5810 c3         1 WOS      -0.024100
     10 C16          2.9020    -2.0910    -0.4450 ca         1 WOS       0.339200
     11 C15          2.6980    -0.7570    -0.0650 ca         1 WOS       0.045300
     12 C14          1.3890    -0.4130     0.2930 ca         1 WOS      -0.145000
     13 C13          0.3740    -1.3540     0.2600 ca         1 WOS      -0.164600
     14 C12          0.7060    -2.6460    -0.1410 ca         1 WOS       0.369200
     15 N11          1.9340    -2.9980    -0.4840 nb         1 WOS      -0.644000
     16 N21          3.7150     0.1890    -0.0690 nh         1 WOS      -0.647000
     17 C22          5.0330    -0.2220    -0.5130 c6         1 WOS       0.160800
     18 C23          5.8940     0.9990    -0.7790 c6         1 WOS       0.124400
     19 O24          5.9770     1.8440     0.3430 os         1 WOS      -0.396600
     20 C25          4.6920     2.2810     0.7220 c6         1 WOS       0.124400
     21 C26          3.7800     1.1170     1.0530 c6         1 WOS       0.160800
     22 H071        -5.5910     3.1960    -1.7260 hc         1 WOS       0.046700
     23 H072        -6.2550     3.3750    -0.1060 hc         1 WOS       0.046700
     24 H073        -4.5910     3.8640    -0.4490 hc         1 WOS       0.046700
     25 H05         -2.8570     2.0670    -1.0490 ha         1 WOS       0.139000
     26 H081        -1.7750    -1.1410    -1.4370 hc         1 WOS       0.055200
     27 H082        -1.1730     0.4560    -1.0340 hc         1 WOS       0.055200
     28 H03         -6.7380     1.0410     0.4670 ha         1 WOS       0.137000
     29 H021        -7.0030    -1.3180     1.0020 hn         1 WOS       0.412300
     30 H022        -5.7030    -2.3940     0.9690 hn         1 WOS       0.412300
     31 H091        -1.0520    -0.2430     1.3930 hc         1 WOS       0.060700
     32 H092        -1.5960    -1.8460     0.9310 hc         1 WOS       0.060700
     33 H14          1.1470     0.6020     0.5870 ha         1 WOS       0.135000
     34 H12         -0.0550    -3.4190    -0.1770 h4         1 WOS       0.021100
     35 H221         5.5250    -0.8800     0.2190 h1         1 WOS       0.048450
     36 H222         4.9540    -0.7770    -1.4500 h1         1 WOS       0.048450
     37 H261         2.7940     1.5200     1.2770 h1         1 WOS       0.048450
     38 H262         4.1390     0.6070     1.9580 h1         1 WOS       0.048450
     39 H231         6.9070     0.6810    -1.0310 h1         1 WOS       0.053450
     40 H232         5.4870     1.5440    -1.6420 h1         1 WOS       0.053450
     41 H251         4.8040     2.9160     1.6010 h1         1 WOS       0.053450
     42 H252         4.2380     2.8830    -0.0770 h1         1 WOS       0.053450
     43 C08         -1.7500    -0.3860    -0.6450 c3         1 WOS      -0.123700
     44 H16          3.8850    -2.4480    -0.7240 h4         1 WOS       0.016100
@<TRIPOS>BOND
     1     1     4 1   
     2     1    22 1   
     3     1    23 1   
     4     1    24 1   
     5     2     3 ar  
     6     2     8 ar  
     7     2    43 1   
     8     3     4 ar  
     9     3    25 1   
    10     4     5 ar  
    11     5     6 ar  
    12     5    28 1   
    13     6     7 1   
    14     6     8 ar  
    15     7    29 1   
    16     7    30 1   
    17     9    13 1   
    18     9    31 1   
    19     9    32 1   
    20     9    43 1   
    21    10    11 ar  
    22    10    15 ar  
    23    10    44 1   
    24    11    12 ar  
    25    11    16 1   
    26    12    13 ar  
    27    12    33 1   
    28    13    14 ar  
    29    14    15 ar  
    30    14    34 1   
    31    16    17 1   
    32    16    21 1   
    33    17    18 1   
    34    17    35 1   
    35    17    36 1   
    36    18    19 1   
    37    18    39 1   
    38    18    40 1   
    39    19    20 1   
    40    20    21 1   
    41    20    41 1   
    42    20    42 1   
    43    21    37 1   
    44    21    38 1   
    45    26    43 1   
    46    27    43 1   
@<TRIPOS>SUBSTRUCTURE
     1 WOS         1 TEMP              0 ****  ****    0 ROOT
