@<TRIPOS>MOLECULE
WOS
   44    46     1     0     0
SMALL
No Charge or Current Charge


@<TRIPOS>ATOM
      1 C07         -5.1730     3.1460     0.3450 c3         1 WOS      -0.053800
      2 C06         -3.2000    -0.0570    -0.4020 ca         1 WOS       0.397300
      3 C05         -3.4840     1.2910    -0.1100 ca         1 WOS      -0.216000
      4 C04         -4.8200     1.7010     0.0340 ca         1 WOS       0.001700
      5 C03         -5.8140     0.7240    -0.1260 ca         1 WOS      -0.232000
      6 C02         -5.4180    -0.5850    -0.4100 ca         1 WOS       0.599900
      7 N02         -6.2750    -1.5920    -0.5890 nv         1 WOS      -1.052900
      8 N01         -4.1650    -0.9910    -0.5510 nb         1 WOS      -0.753000
      9 C09         -1.0910    -0.8250     0.8040 c3         1 WOS      -0.024100
     10 C16          2.9270    -2.2010     0.3500 ca         1 WOS       0.273900
     11 C15          2.7040    -0.7960     0.2480 ca         1 WOS       0.249000
     12 C14          1.3770    -0.3480     0.3980 ca         1 WOS      -0.127000
     13 C13          0.3520    -1.2840     0.6450 ca         1 WOS      -0.099300
     14 C12          0.6870    -2.6510     0.7320 ca         1 WOS       0.303900
     15 N11          1.9500    -3.1140     0.5890 nb         1 WOS      -0.644000
     16 N21          3.7520     0.1390    -0.0070 nh         1 WOS      -0.785400
     17 C22          5.0440    -0.3090    -0.6270 c6         1 WOS       0.160800
     18 C23          5.8400     0.8730    -1.2580 c6         1 WOS       0.147600
     19 O24          6.0030     1.9500    -0.3070 os         1 WOS      -0.443000
     20 C25          4.7370     2.4790     0.1500 c6         1 WOS       0.147600
     21 C26          3.8910     1.3700     0.8450 c6         1 WOS       0.160800
     22 H071        -5.2730     3.7300    -0.5770 hc         1 WOS       0.046700
     23 H072        -6.1210     3.2170     0.8910 hc         1 WOS       0.046700
     24 H073        -4.4010     3.6210     0.9620 hc         1 WOS       0.046700
     25 H05         -2.6730     2.0050     0.0030 ha         1 WOS       0.121000
     26 H081        -1.7210    -1.4330    -1.1770 hc         1 WOS       0.055200
     27 H082        -1.1810     0.2320    -1.0860 hc         1 WOS       0.055200
     28 H03         -6.8660     0.9740    -0.0300 ha         1 WOS       0.119000
     29 H021        -7.2270    -1.3540    -0.8460 hn         1 WOS       0.467500
     30 H022        -5.8820    -2.4220    -1.0140 hn         1 WOS       0.467500
     31 H091        -1.1280     0.0780     1.4280 hc         1 WOS       0.060700
     32 H092        -1.6770    -1.5860     1.3360 hc         1 WOS       0.060700
     33 H14          1.1380     0.7080     0.3080 ha         1 WOS       0.117000
     34 H12         -0.0810    -3.4020     0.9190 h4         1 WOS       0.021100
     35 H221         5.6760    -0.7940     0.1330 h1         1 WOS       0.048450
     36 H222         4.8510    -1.0510    -1.4150 h1         1 WOS       0.048450
     37 H261         2.9080     1.7950     1.0890 h1         1 WOS       0.048450
     38 H262         4.3730     1.1070     1.7980 h1         1 WOS       0.048450
     39 H231         6.8310     0.5240    -1.5810 h1         1 WOS       0.053450
     40 H232         5.3080     1.2500    -2.1430 h1         1 WOS       0.053450
     41 H251         4.9230     3.3010     0.8550 h1         1 WOS       0.053450
     42 H252         4.1840     2.8860    -0.7090 h1         1 WOS       0.053450
     43 C08         -1.7630    -0.5310    -0.5550 c3         1 WOS      -0.123700
     44 H16          3.9300    -2.6120     0.2470 h4         1 WOS       0.016100
@<TRIPOS>BOND
     1     1     4 1   
     2     1    22 1   
     3     1    23 1   
     4     1    24 1   
     5     2     3 ar  
     6     2     8 ar  
     7     2    43 1   
     8     3     4 ar  
     9     3    25 1   
    10     4     5 ar  
    11     5     6 ar  
    12     5    28 1   
    13     6     7 1   
    14     6     8 ar  
    15     7    29 1   
    16     7    30 1   
    17     9    13 1   
    18     9    31 1   
    19     9    32 1   
    20     9    43 1   
    21    10    11 ar  
    22    10    15 ar  
    23    10    44 1   
    24    11    12 ar  
    25    11    16 1   
    26    12    13 ar  
    27    12    33 1   
    28    13    14 ar  
    29    14    15 ar  
    30    14    34 1   
    31    16    17 1   
    32    16    21 1   
    33    17    18 1   
    34    17    35 1   
    35    17    36 1   
    36    18    19 1   
    37    18    39 1   
    38    18    40 1   
    39    19    20 1   
    40    20    21 1   
    41    20    41 1   
    42    20    42 1   
    43    21    37 1   
    44    21    38 1   
    45    26    43 1   
    46    27    43 1   
@<TRIPOS>SUBSTRUCTURE
     1 WOS         1 TEMP              0 ****  ****    0 ROOT
