@<TRIPOS>MOLECULE
WOT
   15    15     1     0     0
SMALL
bcc


@<TRIPOS>ATOM
      1 C1          -0.8180     0.0010    -0.0310 ca         1 WOT      -0.054400
      2 C2          -0.1580    -1.2140     0.0040 ca         1 WOT      -0.102500
      3 C3           1.2290    -1.2150     0.0320 ca         1 WOT      -0.090000
      4 C4           1.9290    -0.0160     0.0250 ca         1 WOT      -0.065000
      5 C5           1.2460     1.1910    -0.0110 ca         1 WOT      -0.090000
      6 C6          -0.1420     1.2070    -0.0400 ca         1 WOT      -0.102500
      7 N           -2.2760     0.0090    -0.0380 nz         1 WOT      -0.698000
      8 H2          -0.7110    -2.1440     0.0080 ha         1 WOT       0.155000
      9 H1           1.7600    -2.1570     0.0600 ha         1 WOT       0.173000
     10 H3           3.0110    -0.0230     0.0430 ha         1 WOT       0.173000
     11 H4           1.7890     2.1260    -0.0200 ha         1 WOT       0.173000
     12 H5          -0.6810     2.1450    -0.0700 ha         1 WOT       0.155000
     13 HN3         -2.6670    -0.0680     0.9040 hn         1 WOT       0.457467
     14 HN2         -2.6570     0.8650    -0.4430 hn         1 WOT       0.457467
     15 HN1         -2.6650    -0.7660    -0.5780 hn         1 WOT       0.457467
@<TRIPOS>BOND
     1     1     2 ar  
     2     1     6 ar  
     3     1     7 1   
     4     2     3 ar  
     5     2     8 1   
     6     3     4 ar  
     7     3     9 1   
     8     4     5 ar  
     9     4    10 1   
    10     5     6 ar  
    11     5    11 1   
    12     6    12 1   
    13     7    13 1   
    14     7    14 1   
    15     7    15 1   
@<TRIPOS>SUBSTRUCTURE
     1 WOT         1 TEMP              0 ****  ****    0 ROOT
