@<TRIPOS>MOLECULE
WOU
   49    52     1     0     0
SMALL
abcg2


@<TRIPOS>ATOM
      1 C10         15.6850    -3.8300   -23.6740 cc         1 WOU       0.634500
      2 C15         12.0690    -5.6610   -18.5690 c6         1 WOU      -0.171700
      3 C16         12.1300    -7.1510   -18.2200 c6         1 WOU      -0.059400
      4 C17         11.5120    -8.0260   -19.3130 c6         1 WOU      -0.077400
      5 C18         12.1400    -7.7460   -20.6790 c6         1 WOU      -0.072400
      6 C19         12.0150    -6.2660   -21.0350 c6         1 WOU      -0.076400
      7 C20         12.6380    -4.7190   -17.4780 c          1 WOU       0.718000
      8 C24         14.0460    -3.1660   -24.8360 cd         1 WOU       0.585300
      9 C27         12.6510    -2.8450   -25.2260 c3         1 WOU      -0.124400
     10 C1          16.0330    -4.8690   -21.4730 cd         1 WOU       0.054600
     11 C2          16.5510    -4.3660   -22.6650 cc         1 WOU      -0.334500
     12 C3          17.9880    -4.4970   -22.7370 cc         1 WOU      -0.020300
     13 C4          18.5030    -5.0970   -21.6300 cd         1 WOU      -0.282300
     14 S5          17.2770    -5.5090   -20.4600 ss         1 WOU       0.307000
     15 C6          20.3490    -4.0570   -23.4800 c6         1 WOU      -0.071400
     16 C7          20.7260    -5.3220   -22.7100 c6         1 WOU      -0.071400
     17 C8          19.9510    -5.4040   -21.3900 c6         1 WOU       0.009900
     18 C9          18.8680    -4.0500   -23.8740 c6         1 WOU      -0.014100
     19 C12         14.1590    -5.4240   -20.0040 c          1 WOU       0.623100
     20 O13         14.8740    -5.9260   -19.1470 o          1 WOU      -0.546100
     21 C14         12.6430    -5.3520   -19.9600 c6         1 WOU      -0.100700
     22 N23         14.3790    -3.6860   -23.6130 nd         1 WOU      -0.801000
     23 N25         15.0660    -2.9840   -25.6280 nc         1 WOU      -0.417300
     24 O26         16.1730    -3.4250   -24.8590 os         1 WOU      -0.122700
     25 H1          11.0060    -5.3900   -18.6370 hc         1 WOU       0.030700
     26 H2          13.1710    -7.4430   -18.0680 hc         1 WOU       0.055700
     27 H3          11.6140    -7.3130   -17.2730 hc         1 WOU       0.055700
     28 H4          11.6260    -9.0820   -19.0530 hc         1 WOU       0.020200
     29 H5          10.4350    -7.8290   -19.3720 hc         1 WOU       0.020200
     30 H6          13.1970    -8.0350   -20.6630 hc         1 WOU       0.026700
     31 H7          11.6600    -8.3490   -21.4540 hc         1 WOU       0.026700
     32 H8          10.9560    -6.0030   -21.1080 hc         1 WOU       0.031700
     33 H9          12.4560    -6.0640   -22.0130 hc         1 WOU       0.031700
     34 H10         12.0280    -3.7360   -25.1280 hc         1 WOU       0.060033
     35 H11         12.2460    -2.0800   -24.5610 hc         1 WOU       0.060033
     36 H12         12.6110    -2.4860   -26.2530 hc         1 WOU       0.060033
     37 H13         20.5580    -3.1850   -22.8520 hc         1 WOU       0.037200
     38 H14         20.9620    -3.9590   -24.3780 hc         1 WOU       0.037200
     39 H15         20.4960    -6.2010   -23.3200 hc         1 WOU       0.035700
     40 H16         21.7980    -5.3420   -22.5060 hc         1 WOU       0.035700
     41 H17         20.3700    -4.6920   -20.6710 hc         1 WOU       0.044700
     42 H18         20.0600    -6.3950   -20.9430 hc         1 WOU       0.044700
     43 H19         18.7070    -4.7080   -24.7340 hc         1 WOU       0.055200
     44 H20         18.5750    -3.0510   -24.2020 hc         1 WOU       0.055200
     45 H22         12.3920    -4.3200   -20.2090 hc         1 WOU       0.082700
     46 O21         12.7430    -5.1680   -16.3090 o          1 WOU      -0.731000
     47 N11         14.7040    -4.8730   -21.1360 ns         1 WOU      -0.380100
     48 O22         12.9130    -3.5430   -17.8390 o          1 WOU      -0.731000
     49 H21         14.0950    -4.4460   -21.8340 hn         1 WOU       0.366500
@<TRIPOS>BOND
     1     1    11 1   
     2     1    22 2   
     3     1    24 1   
     4     2     3 1   
     5     2     7 1   
     6     2    21 1   
     7     2    25 1   
     8     3     4 1   
     9     3    26 1   
    10     3    27 1   
    11     4     5 1   
    12     4    28 1   
    13     4    29 1   
    14     5     6 1   
    15     5    30 1   
    16     5    31 1   
    17     6    21 1   
    18     6    32 1   
    19     6    33 1   
    20     7    46 1   
    21     7    48 1   
    22     8     9 1   
    23     8    22 1   
    24     8    23 2   
    25     9    34 1   
    26     9    35 1   
    27     9    36 1   
    28    10    11 2   
    29    10    14 1   
    30    10    47 1   
    31    11    12 1   
    32    12    13 2   
    33    12    18 1   
    34    13    14 1   
    35    13    17 1   
    36    15    16 1   
    37    15    18 1   
    38    15    37 1   
    39    15    38 1   
    40    16    17 1   
    41    16    39 1   
    42    16    40 1   
    43    17    41 1   
    44    17    42 1   
    45    18    43 1   
    46    18    44 1   
    47    19    20 2   
    48    19    21 1   
    49    19    47 1   
    50    21    45 1   
    51    23    24 1   
    52    47    49 1   
@<TRIPOS>SUBSTRUCTURE
     1 WOU         1 TEMP              0 ****  ****    0 ROOT
