@<TRIPOS>MOLECULE
WOU
   49    52     1     0     0
SMALL
No Charge or Current Charge


@<TRIPOS>ATOM
      1 C10         15.8320    -3.6430   -23.4710 cc         1 WOU       0.634500
      2 C15         11.9210    -5.4620   -19.2570 c6         1 WOU      -0.171700
      3 C16         11.8350    -6.5140   -18.1150 c6         1 WOU      -0.059400
      4 C17         11.0930    -7.7930   -18.5890 c6         1 WOU      -0.077400
      5 C18         11.7490    -8.4110   -19.8520 c6         1 WOU      -0.072400
      6 C19         11.8640    -7.3760   -21.0010 c6         1 WOU      -0.076400
      7 C20         12.5580    -4.1190   -18.8080 c          1 WOU       0.718000
      8 C24         14.2380    -2.6860   -24.4610 cd         1 WOU       0.585300
      9 C27         12.8440    -2.2740   -24.8240 c3         1 WOU      -0.124400
     10 C1          16.1680    -5.2930   -21.6400 cd         1 WOU       0.054600
     11 C2          16.6850    -4.4520   -22.6120 cc         1 WOU      -0.334500
     12 C3          18.1230    -4.5020   -22.6620 cc         1 WOU      -0.020300
     13 C4          18.6650    -5.3930   -21.7640 cd         1 WOU      -0.282300
     14 S5          17.4370    -6.1860   -20.7690 ss         1 WOU       0.307000
     15 C6          20.4930    -3.7630   -23.2560 c6         1 WOU      -0.071400
     16 C7          20.9190    -5.1980   -22.8710 c6         1 WOU      -0.071400
     17 C8          20.1440    -5.6780   -21.6220 c6         1 WOU       0.009900
     18 C9          18.9850    -3.6880   -23.6170 c6         1 WOU      -0.014100
     19 C12         14.1350    -6.2110   -20.4960 c          1 WOU       0.623100
     20 O13         14.7090    -6.9850   -19.7410 o          1 WOU      -0.546100
     21 C14         12.5850    -6.0820   -20.5310 c6         1 WOU      -0.100700
     22 N23         14.5120    -3.5690   -23.4480 nd         1 WOU      -0.801000
     23 N25         15.2940    -2.2220   -25.1010 nc         1 WOU      -0.417300
     24 O26         16.3720    -2.8580   -24.4490 os         1 WOU      -0.122700
     25 H1          10.8860    -5.2200   -19.5390 hc         1 WOU       0.030700
     26 H2          12.8410    -6.7780   -17.7600 hc         1 WOU       0.055700
     27 H3          11.3080    -6.0840   -17.2520 hc         1 WOU       0.055700
     28 H4          11.0790    -8.5340   -17.7790 hc         1 WOU       0.020200
     29 H5          10.0430    -7.5500   -18.8030 hc         1 WOU       0.020200
     30 H6          12.7420    -8.8050   -19.5970 hc         1 WOU       0.026700
     31 H7          11.1570    -9.2730   -20.1900 hc         1 WOU       0.026700
     32 H8          10.8550    -7.1230   -21.3560 hc         1 WOU       0.031700
     33 H9          12.3910    -7.8180   -21.8590 hc         1 WOU       0.031700
     34 H10         12.1070    -2.7510   -24.1680 hc         1 WOU       0.060033
     35 H11         12.7240    -1.1890   -24.7340 hc         1 WOU       0.060033
     36 H12         12.6120    -2.5590   -25.8560 hc         1 WOU       0.060033
     37 H13         20.7020    -3.0870   -22.4150 hc         1 WOU       0.037200
     38 H14         21.0960    -3.4030   -24.1000 hc         1 WOU       0.037200
     39 H15         20.7270    -5.8780   -23.7120 hc         1 WOU       0.035700
     40 H16         22.0000    -5.2340   -22.6770 hc         1 WOU       0.035700
     41 H17         20.5360    -5.1680   -20.7310 hc         1 WOU       0.044700
     42 H18         20.3220    -6.7510   -21.4670 hc         1 WOU       0.044700
     43 H19         18.8450    -4.0490   -24.6450 hc         1 WOU       0.055200
     44 H20         18.6950    -2.6290   -23.6100 hc         1 WOU       0.055200
     45 H22         12.3920    -5.3480   -21.3250 hc         1 WOU       0.082700
     46 O21         13.7070    -4.1260   -18.3960 o          1 WOU      -0.731000
     47 N11         14.8080    -5.4130   -21.4010 ns         1 WOU      -0.380100
     48 O22         11.8700    -3.1120   -18.8710 o          1 WOU      -0.731000
     49 H21         14.2020    -4.8310   -21.9730 hn         1 WOU       0.366500
@<TRIPOS>BOND
     1     1    11 1   
     2     1    22 2   
     3     1    24 1   
     4     2     3 1   
     5     2     7 1   
     6     2    21 1   
     7     2    25 1   
     8     3     4 1   
     9     3    26 1   
    10     3    27 1   
    11     4     5 1   
    12     4    28 1   
    13     4    29 1   
    14     5     6 1   
    15     5    30 1   
    16     5    31 1   
    17     6    21 1   
    18     6    32 1   
    19     6    33 1   
    20     7    46 1   
    21     7    48 1   
    22     8     9 1   
    23     8    22 1   
    24     8    23 2   
    25     9    34 1   
    26     9    35 1   
    27     9    36 1   
    28    10    11 2   
    29    10    14 1   
    30    10    47 1   
    31    11    12 1   
    32    12    13 2   
    33    12    18 1   
    34    13    14 1   
    35    13    17 1   
    36    15    16 1   
    37    15    18 1   
    38    15    37 1   
    39    15    38 1   
    40    16    17 1   
    41    16    39 1   
    42    16    40 1   
    43    17    41 1   
    44    17    42 1   
    45    18    43 1   
    46    18    44 1   
    47    19    20 2   
    48    19    21 1   
    49    19    47 1   
    50    21    45 1   
    51    23    24 1   
    52    47    49 1   
@<TRIPOS>SUBSTRUCTURE
     1 WOU         1 TEMP              0 ****  ****    0 ROOT
