@<TRIPOS>MOLECULE
WOV
   29    30     1     0     0
SMALL
bcc


@<TRIPOS>ATOM
      1 C1          35.8230    34.4440    23.7780 cc         1 WOV      -0.078600
      2 C2          34.9970    35.2300    23.0170 cd         1 WOV      -0.218500
      3 C3          34.5610    34.4510    21.9100 cd         1 WOV      -0.218500
      4 C4          35.1340    33.2110    22.0250 cc         1 WOV      -0.078600
      5 C5          35.0490    32.0210    21.1380 c3         1 WOV      -0.021300
      6 O1          39.7030    33.6600    23.2180 o          1 WOV      -0.806800
      7 C6          36.6410    32.1160    23.6580 ca         1 WOV      -0.043200
      8 C7          38.0190    32.0390    23.4530 ca         1 WOV      -0.071600
      9 C8          38.7180    30.9770    24.0140 ca         1 WOV      -0.146000
     10 O2          38.4070    33.2080    21.4520 o          1 WOV      -0.806800
     11 C9          38.0610    29.9740    24.7210 ca         1 WOV       0.115100
     12 C10         36.6840    30.0550    24.9140 ca         1 WOV      -0.256000
     13 C11         35.9900    31.1340    24.3920 ca         1 WOV      -0.102000
     14 C12         38.7760    33.0740    22.6310 c          1 WOV       0.928200
     15 O           38.8040    28.9580    25.2030 oh         1 WOV      -0.506100
     16 N           35.8940    33.2160    23.1660 na         1 WOV       0.044800
     17 C           36.5540    34.7450    25.0390 c3         1 WOV      -0.021300
     18 H1          34.7340    36.2550    23.2350 ha         1 WOV       0.126500
     19 H2          33.9050    34.7640    21.1120 ha         1 WOV       0.126500
     20 H3          36.0330    31.7400    20.7590 hc         1 WOV       0.041200
     21 H4          34.6340    31.1480    21.6450 hc         1 WOV       0.041200
     22 H5          34.4090    32.2440    20.2850 hc         1 WOV       0.041200
     23 H7          39.7920    30.9120    23.8870 ha         1 WOV       0.153000
     24 H8          36.1580    29.2900    25.4740 ha         1 WOV       0.109000
     25 H9          34.9230    31.2160    24.5610 ha         1 WOV       0.120000
     26 H10         38.2490    28.3310    25.6800 ho         1 WOV       0.405000
     27 H11         36.2680    34.0750    25.8530 hc         1 WOV       0.041200
     28 H12         37.6360    34.6600    24.9170 hc         1 WOV       0.041200
     29 H13         36.3340    35.7630    25.3560 hc         1 WOV       0.041200
@<TRIPOS>BOND
     1     1     2 2   
     2     1    16 1   
     3     1    17 1   
     4     2     3 1   
     5     2    18 1   
     6     3     4 2   
     7     3    19 1   
     8     4     5 1   
     9     4    16 1   
    10     5    20 1   
    11     5    21 1   
    12     5    22 1   
    13     6    14 1   
    14     7     8 ar  
    15     7    13 ar  
    16     7    16 1   
    17     8     9 ar  
    18     8    14 1   
    19     9    11 ar  
    20     9    23 1   
    21    10    14 1   
    22    11    12 ar  
    23    11    15 1   
    24    12    13 ar  
    25    12    24 1   
    26    13    25 1   
    27    15    26 1   
    28    17    27 1   
    29    17    28 1   
    30    17    29 1   
@<TRIPOS>SUBSTRUCTURE
     1 WOV         1 TEMP              0 ****  ****    0 ROOT
