@<TRIPOS>MOLECULE
WOV
   29    30     1     0     0
SMALL
No Charge or Current Charge


@<TRIPOS>ATOM
      1 C1          35.8800    34.4660    23.7720 cc         1 WOV      -0.129300
      2 C2          34.9850    35.1850    23.0230 cd         1 WOV      -0.200500
      3 C3          34.5130    34.3840    21.9550 cd         1 WOV      -0.200500
      4 C4          35.1050    33.1490    22.0170 cc         1 WOV      -0.129300
      5 C5          34.9300    31.9480    21.1250 c3         1 WOV      -0.021300
      6 O1          39.8680    33.6020    23.3210 o          1 WOV      -0.701500
      7 C6          36.6790    32.1470    23.6180 ca         1 WOV      -0.043200
      8 C7          38.0900    32.0740    23.4850 ca         1 WOV      -0.071600
      9 C8          38.7730    30.9720    24.0470 ca         1 WOV      -0.128000
     10 O2          38.5730    33.4230    21.6100 o          1 WOV      -0.701500
     11 C9          38.0720    29.9590    24.7150 ca         1 WOV       0.115100
     12 C10         36.6790    30.0290    24.8360 ca         1 WOV      -0.238000
     13 C11         35.9850    31.1220    24.2920 ca         1 WOV      -0.084000
     14 C12         38.8840    33.1400    22.7590 c          1 WOV       0.717600
     15 O           38.7440    28.9020    25.2460 oh         1 WOV      -0.545100
     16 N           35.9550    33.2340    23.1210 na         1 WOV       0.146200
     17 C           36.6250    34.8570    25.0200 c3         1 WOV      -0.021300
     18 H1          34.6760    36.2060    23.2280 ha         1 WOV       0.108500
     19 H2          33.7880    34.6930    21.2090 ha         1 WOV       0.108500
     20 H3          35.9020    31.5490    20.8110 hc         1 WOV       0.041200
     21 H4          34.3880    31.1500    21.6460 hc         1 WOV       0.041200
     22 H5          34.3650    32.2080    20.2230 hc         1 WOV       0.041200
     23 H7          39.8540    30.9030    23.9570 ha         1 WOV       0.135000
     24 H8          36.1280    29.2470    25.3540 ha         1 WOV       0.091000
     25 H9          34.9030    31.1790    24.3980 ha         1 WOV       0.102000
     26 H10         38.0890    28.3050    25.6670 ho         1 WOV       0.444000
     27 H11         36.5630    34.0690    25.7810 hc         1 WOV       0.041200
     28 H12         37.6840    35.0370    24.8030 hc         1 WOV       0.041200
     29 H13         36.2100    35.7740    25.4540 hc         1 WOV       0.041200
@<TRIPOS>BOND
     1     1     2 2   
     2     1    16 1   
     3     1    17 1   
     4     2     3 1   
     5     2    18 1   
     6     3     4 2   
     7     3    19 1   
     8     4     5 1   
     9     4    16 1   
    10     5    20 1   
    11     5    21 1   
    12     5    22 1   
    13     6    14 1   
    14     7     8 ar  
    15     7    13 ar  
    16     7    16 1   
    17     8     9 ar  
    18     8    14 1   
    19     9    11 ar  
    20     9    23 1   
    21    10    14 1   
    22    11    12 ar  
    23    11    15 1   
    24    12    13 ar  
    25    12    24 1   
    26    13    25 1   
    27    15    26 1   
    28    17    27 1   
    29    17    28 1   
    30    17    29 1   
@<TRIPOS>SUBSTRUCTURE
     1 WOV         1 TEMP              0 ****  ****    0 ROOT
