@<TRIPOS>MOLECULE
WOW
   49    51     1     0     0
SMALL
bcc


@<TRIPOS>ATOM
      1 C01          3.5760     3.5320    -1.6280 c3         1 WOW      -0.051800
      2 C02          3.0360     3.2590    -0.2540 ca         1 WOW      -0.071300
      3 C03          3.5600     3.9210     0.8520 ca         1 WOW      -0.124000
      4 C04          3.0670     3.6970     2.1310 ca         1 WOW      -0.119000
      5 C05          2.0310     2.7960     2.3160 ca         1 WOW      -0.126000
      6 C06          1.4990     2.1260     1.2210 ca         1 WOW      -0.113000
      7 C07          1.9900     2.3460    -0.0600 ca         1 WOW      -0.117300
      8 C08          1.4100     1.6380    -1.2650 c3         1 WOW       0.271100
      9 N09          0.3460     0.6990    -0.9780 nh         1 WOW      -0.683000
     10 C10         -1.0120     1.2060    -1.1070 c5         1 WOW       0.235500
     11 C11         -1.7840     0.7010    -2.3410 c5         1 WOW      -0.104400
     12 C12         -3.2380     0.6800    -1.8950 c5         1 WOW       0.226800
     13 N13         -3.1060     0.3140    -0.4840 n3         1 WOW      -0.794500
     14 C14         -1.9380     0.9580     0.1090 c5         1 WOW       0.201800
     15 S15         -4.4190    -0.0370     0.4440 s6         1 WOW       1.249900
     16 C16         -4.2170    -1.7660     0.7880 c3         1 WOW      -0.239300
     17 O17         -4.3140     0.6830     1.7070 o          1 WOW      -0.610300
     18 O18         -5.6130     0.1340    -0.3730 o          1 WOW      -0.610300
     19 C19          0.6370    -0.5800    -0.6170 ca         1 WOW       0.236600
     20 C20         -0.3540    -1.5790    -0.5020 ca         1 WOW      -0.230000
     21 C21         -0.0290    -2.8620    -0.1310 ca         1 WOW      -0.040000
     22 C22          1.2900    -3.2320     0.1480 ca         1 WOW      -0.078000
     23 C23          1.6050    -4.5590     0.5300 cg         1 WOW       0.248800
     24 N24          1.8410    -5.6450     0.8420 n1         1 WOW      -0.364800
     25 C25          2.2720    -2.2440     0.0390 ca         1 WOW       0.107400
     26 CL26         3.9110    -2.6460     0.3920 cl         1 WOW      -0.085400
     27 C27          1.9680    -0.9550    -0.3280 ca         1 WOW      -0.217000
     28 H01          3.9510     2.6250    -2.1070 hc         1 WOW       0.043367
     29 H01A         2.8080     3.9440    -2.2870 hc         1 WOW       0.043367
     30 H01B         4.3960     4.2470    -1.5920 hc         1 WOW       0.043367
     31 H03          4.3690     4.6290     0.7090 ha         1 WOW       0.132000
     32 H04          3.4890     4.2280     2.9740 ha         1 WOW       0.135000
     33 H05          1.6330     2.6120     3.3050 ha         1 WOW       0.136000
     34 H06          0.6920     1.4220     1.3790 ha         1 WOW       0.134000
     35 H08          1.0120     2.3810    -1.9590 h1         1 WOW       0.060200
     36 H08A         2.1990     1.1350    -1.8300 h1         1 WOW       0.060200
     37 H10         -0.9040     2.2850    -1.1970 h1         1 WOW       0.065700
     38 H11         -1.6320     1.3550    -3.1990 hc         1 WOW       0.064200
     39 H11A        -1.4600    -0.2990    -2.6280 hc         1 WOW       0.064200
     40 H12         -3.7050     1.6610    -2.0200 h1         1 WOW       0.061700
     41 H12A        -3.8260    -0.0560    -2.4390 h1         1 WOW       0.061700
     42 H14         -1.4820     0.3240     0.8710 h1         1 WOW       0.067700
     43 H14A        -2.1900     1.9110     0.5760 h1         1 WOW       0.067700
     44 H16         -3.2650    -1.9210     1.2920 h1         1 WOW       0.103700
     45 H16A        -5.0320    -2.0850     1.4360 h1         1 WOW       0.103700
     46 H16B        -4.2440    -2.3210    -0.1460 h1         1 WOW       0.103700
     47 H20         -1.3910    -1.3700    -0.7120 ha         1 WOW       0.151000
     48 H21         -0.8110    -3.6050    -0.0590 ha         1 WOW       0.141000
     49 H27          2.7690    -0.2320    -0.3550 ha         1 WOW       0.158000
@<TRIPOS>BOND
     1     1     2 1   
     2     1    28 1   
     3     1    29 1   
     4     1    30 1   
     5     2     3 ar  
     6     2     7 ar  
     7     3     4 ar  
     8     3    31 1   
     9     4     5 ar  
    10     4    32 1   
    11     5     6 ar  
    12     5    33 1   
    13     6     7 ar  
    14     6    34 1   
    15     7     8 1   
    16     8     9 1   
    17     8    35 1   
    18     8    36 1   
    19     9    10 1   
    20     9    19 1   
    21    10    11 1   
    22    10    14 1   
    23    10    37 1   
    24    11    12 1   
    25    11    38 1   
    26    11    39 1   
    27    12    13 1   
    28    12    40 1   
    29    12    41 1   
    30    13    14 1   
    31    13    15 1   
    32    14    42 1   
    33    14    43 1   
    34    15    16 1   
    35    15    17 2   
    36    15    18 2   
    37    16    44 1   
    38    16    45 1   
    39    16    46 1   
    40    19    20 ar  
    41    19    27 ar  
    42    20    21 ar  
    43    20    47 1   
    44    21    22 ar  
    45    21    48 1   
    46    22    23 1   
    47    22    25 ar  
    48    23    24 3   
    49    25    26 1   
    50    25    27 ar  
    51    27    49 1   
@<TRIPOS>SUBSTRUCTURE
     1 WOW         1 TEMP              0 ****  ****    0 ROOT
