@<TRIPOS>MOLECULE
WOW
   49    51     1     0     0
SMALL
No Charge or Current Charge


@<TRIPOS>ATOM
      1 C01          2.0180     3.9270    -2.0760 c3         1 WOW      -0.051800
      2 C02          2.4450     3.5800    -0.6520 ca         1 WOW      -0.071300
      3 C03          2.9010     4.6140     0.1910 ca         1 WOW      -0.106000
      4 C04          3.3050     4.3400     1.5080 ca         1 WOW      -0.101000
      5 C05          3.2560     3.0260     1.9950 ca         1 WOW      -0.108000
      6 C06          2.8050     1.9880     1.1640 ca         1 WOW      -0.095000
      7 C07          2.3950     2.2500    -0.1600 ca         1 WOW      -0.117300
      8 C08          1.9070     1.0740    -1.0120 c3         1 WOW       0.271100
      9 N09          0.5780     0.5660    -0.6150 nh         1 WOW      -0.821400
     10 C10         -0.5940     1.5190    -0.5350 c5         1 WOW       0.235500
     11 C11         -1.2660     1.5280    -1.9490 c5         1 WOW      -0.104400
     12 C12         -2.7180     1.0360    -1.6840 c5         1 WOW       0.226800
     13 N13         -2.5410     0.1370    -0.5330 n3         1 WOW      -0.794500
     14 C14         -1.7230     0.9510     0.3950 c5         1 WOW       0.201800
     15 S15         -3.9030    -0.6930     0.0800 s6         1 WOW       1.219100
     16 C16         -3.1830    -1.9900     1.0680 c3         1 WOW      -0.350100
     17 O17         -4.6390     0.2460     0.9320 o          1 WOW      -0.539500
     18 O18         -4.5580    -1.3260    -1.0700 o          1 WOW      -0.539500
     19 C19          0.4440    -0.8170    -0.3900 ca         1 WOW       0.375000
     20 C20          0.1650    -1.6880    -1.4530 ca         1 WOW      -0.212000
     21 C21          0.0330    -3.0690    -1.2270 ca         1 WOW      -0.022000
     22 C22          0.1920    -3.5870     0.0720 ca         1 WOW      -0.078000
     23 C23          0.0470    -4.9980     0.2930 cg         1 WOW       0.338000
     24 N24         -0.0730    -6.1480     0.4600 n1         1 WOW      -0.454000
     25 C25          0.4920    -2.7110     1.1350 ca         1 WOW       0.199000
     26 Cl26         0.7040    -3.3020     2.7850 cl         1 WOW      -0.177000
     27 C27          0.6240    -1.3360     0.8980 ca         1 WOW      -0.199000
     28 H01          2.6800     3.4540    -2.8110 hc         1 WOW       0.043367
     29 H01A         0.9940     3.5940    -2.2770 hc         1 WOW       0.043367
     30 H01B         2.0480     5.0080    -2.2590 hc         1 WOW       0.043367
     31 H03          2.9450     5.6380    -0.1730 ha         1 WOW       0.114000
     32 H04          3.6540     5.1460     2.1500 ha         1 WOW       0.117000
     33 H05          3.5680     2.8100     3.0150 ha         1 WOW       0.118000
     34 H06          2.7690     0.9720     1.5510 ha         1 WOW       0.116000
     35 H08          1.8910     1.3440    -2.0750 h1         1 WOW       0.060200
     36 H08A         2.6490     0.2680    -0.9210 h1         1 WOW       0.060200
     37 H10         -0.2890     2.5220    -0.2060 h1         1 WOW       0.065700
     38 H11         -1.2660     2.5290    -2.3920 hc         1 WOW       0.064200
     39 H11A        -0.7600     0.8730    -2.6640 hc         1 WOW       0.064200
     40 H12         -3.3830     1.8760    -1.4370 h1         1 WOW       0.061700
     41 H12A        -3.1360     0.5230    -2.5610 h1         1 WOW       0.061700
     42 H14         -1.3280     0.3820     1.2460 h1         1 WOW       0.067700
     43 H14A        -2.3140     1.7780     0.8140 h1         1 WOW       0.067700
     44 H16         -2.6070    -1.5180     1.8700 h1         1 WOW       0.103700
     45 H16A        -4.0040    -2.5920     1.4680 h1         1 WOW       0.103700
     46 H16B        -2.5400    -2.5780     0.4070 h1         1 WOW       0.103700
     47 H20          0.0420    -1.2920    -2.4550 ha         1 WOW       0.133000
     48 H21         -0.1940    -3.7310    -2.0610 ha         1 WOW       0.123000
     49 H27          0.8550    -0.6650     1.7180 ha         1 WOW       0.140000
@<TRIPOS>BOND
     1     1     2 1   
     2     1    28 1   
     3     1    29 1   
     4     1    30 1   
     5     2     3 ar  
     6     2     7 ar  
     7     3     4 ar  
     8     3    31 1   
     9     4     5 ar  
    10     4    32 1   
    11     5     6 ar  
    12     5    33 1   
    13     6     7 ar  
    14     6    34 1   
    15     7     8 1   
    16     8     9 1   
    17     8    35 1   
    18     8    36 1   
    19     9    10 1   
    20     9    19 1   
    21    10    11 1   
    22    10    14 1   
    23    10    37 1   
    24    11    12 1   
    25    11    38 1   
    26    11    39 1   
    27    12    13 1   
    28    12    40 1   
    29    12    41 1   
    30    13    14 1   
    31    13    15 1   
    32    14    42 1   
    33    14    43 1   
    34    15    16 1   
    35    15    17 2   
    36    15    18 2   
    37    16    44 1   
    38    16    45 1   
    39    16    46 1   
    40    19    20 ar  
    41    19    27 ar  
    42    20    21 ar  
    43    20    47 1   
    44    21    22 ar  
    45    21    48 1   
    46    22    23 1   
    47    22    25 ar  
    48    23    24 3   
    49    25    26 1   
    50    25    27 ar  
    51    27    49 1   
@<TRIPOS>SUBSTRUCTURE
     1 WOW         1 TEMP              0 ****  ****    0 ROOT
