@<TRIPOS>MOLECULE
WOX
   44    47     1     0     0
SMALL
No Charge or Current Charge


@<TRIPOS>ATOM
      1 C1           2.9080    -7.6820    33.4170 c3         1 WOX      -0.031800
      2 C2           3.9430    -8.7730    33.3140 cc         1 WOX      -0.043300
      3 C3           4.6570    -9.2070    34.4630 cc         1 WOX      -0.138000
      4 C4           5.5820   -10.1870    34.2240 cd         1 WOX      -0.235000
      5 C6           4.3230    -9.4520    32.1760 cd         1 WOX      -0.262900
      6 C11          3.8330    -9.1470    27.1340 c6         1 WOX      -0.074400
      7 C17         -0.5630   -12.2380    28.1010 ca         1 WOX       0.223000
      8 S5           5.6190   -10.6180    32.5130 ss         1 WOX       0.215000
      9 C7           3.8340    -9.2370    30.8100 cf         1 WOX       0.398900
     10 N8           2.6120    -8.9580    30.5140 n2         1 WOX      -0.255700
     11 O9           2.4080    -9.0830    29.1200 os         1 WOX      -0.269000
     12 C10          3.5680    -9.7540    28.5350 c5         1 WOX       0.061000
     13 C12          2.7180    -9.5500    26.1540 c6         1 WOX      -0.087400
     14 C13          2.6220   -11.0810    26.0870 c6         1 WOX       0.114000
     15 N14          2.4590   -11.6980    27.4260 n          1 WOX      -0.398800
     16 C15          1.7800   -13.0130    27.4690 c3         1 WOX       0.164300
     17 C16          0.5710   -13.0200    28.4000 ca         1 WOX      -0.184300
     18 C19         -1.6760   -12.2280    28.9560 ca         1 WOX      -0.174000
     19 C20         -1.6750   -13.0030    30.1260 ca         1 WOX      -0.051000
     20 C21         -0.5540   -13.7920    30.4310 ca         1 WOX      -0.174000
     21 C22          0.5590   -13.8010    29.5750 ca         1 WOX       0.223000
     22 F23          1.6170   -14.5800    29.8940 f          1 WOX      -0.172000
     23 C24          3.2650   -11.3100    28.5280 c          1 WOX       0.563000
     24 O25          3.6070   -12.1090    29.3930 o          1 WOX      -0.546000
     25 C26          4.6960    -9.4450    29.5740 c5         1 WOX      -0.158700
     26 H1           1.8980    -8.0900    33.2900 hc         1 WOX       0.051700
     27 H2           2.9470    -7.1810    34.3920 hc         1 WOX       0.051700
     28 H3           3.0650    -6.9180    32.6460 hc         1 WOX       0.051700
     29 H4           4.4770    -8.7830    35.4470 ha         1 WOX       0.136000
     30 H5           6.2460   -10.6750    34.9280 h4         1 WOX       0.152000
     31 H6           4.8040    -9.4980    26.7570 hc         1 WOX       0.057200
     32 H7           3.8990    -8.0520    27.2000 hc         1 WOX       0.057200
     33 H8           2.9220    -9.1430    25.1540 hc         1 WOX       0.064700
     34 H9           1.7550    -9.1300    26.4760 hc         1 WOX       0.064700
     35 H10          1.7740   -11.3550    25.4420 h1         1 WOX       0.043700
     36 H11          3.5330   -11.4850    25.6230 h1         1 WOX       0.043700
     37 H12          1.4410   -13.2850    26.4600 h1         1 WOX       0.062200
     38 H13          2.5050   -13.7800    27.7670 h1         1 WOX       0.062200
     39 H14         -2.5410   -11.6180    28.7070 ha         1 WOX       0.136500
     40 H15         -2.5380   -12.9960    30.7890 ha         1 WOX       0.121000
     41 H16         -0.5450   -14.3990    31.3330 ha         1 WOX       0.136500
     42 H17          5.4360   -10.2450    29.6730 hc         1 WOX       0.086700
     43 H18          5.2350    -8.5240    29.3300 hc         1 WOX       0.086700
     44 F18         -0.5980   -11.4880    26.9760 f          1 WOX      -0.172000
@<TRIPOS>BOND
     1     1     2 1   
     2     1    26 1   
     3     1    27 1   
     4     1    28 1   
     5     2     3 1   
     6     2     5 2   
     7     3     4 2   
     8     3    29 1   
     9     4     8 1   
    10     4    30 1   
    11     5     8 1   
    12     5     9 1   
    13     6    12 1   
    14     6    13 1   
    15     6    31 1   
    16     6    32 1   
    17     7    17 ar  
    18     7    18 ar  
    19     7    44 1   
    20     9    10 2   
    21     9    25 1   
    22    10    11 1   
    23    11    12 1   
    24    12    23 1   
    25    12    25 1   
    26    13    14 1   
    27    13    33 1   
    28    13    34 1   
    29    14    15 1   
    30    14    35 1   
    31    14    36 1   
    32    15    16 1   
    33    15    23 1   
    34    16    17 1   
    35    16    37 1   
    36    16    38 1   
    37    17    21 ar  
    38    18    19 ar  
    39    18    39 1   
    40    19    20 ar  
    41    19    40 1   
    42    20    21 ar  
    43    20    41 1   
    44    21    22 1   
    45    23    24 2   
    46    25    42 1   
    47    25    43 1   
@<TRIPOS>SUBSTRUCTURE
     1 WOX         1 TEMP              0 ****  ****    0 ROOT
