@<TRIPOS>MOLECULE
WOX
   44    47     1     0     0
SMALL
abcg2


@<TRIPOS>ATOM
      1 C1           2.8860    -7.6830    33.4570 c3         1 WOX      -0.031800
      2 C2           4.1880    -8.4090    33.3580 cc         1 WOX      -0.043300
      3 C3           5.1480    -8.4240    34.4050 cc         1 WOX      -0.138000
      4 C4           6.2680    -9.1420    34.1090 cd         1 WOX      -0.235000
      5 C6           4.6200    -9.1360    32.2700 cd         1 WOX      -0.262900
      6 C11          3.8950    -9.3440    27.5460 c6         1 WOX      -0.074400
      7 C17         -0.6440   -12.2530    27.9600 ca         1 WOX       0.223000
      8 S5           6.1840    -9.8180    32.5470 ss         1 WOX       0.215000
      9 C7           3.9690    -9.3810    31.0040 cf         1 WOX       0.398900
     10 N8           2.7870    -8.9780    30.7450 n2         1 WOX      -0.255700
     11 O9           2.4340    -9.3220    29.4730 os         1 WOX      -0.269000
     12 C10          3.5020   -10.0620    28.8220 c5         1 WOX       0.061000
     13 C12          2.7870    -9.4380    26.5170 c6         1 WOX      -0.087400
     14 C13          2.5180   -10.8920    26.1960 c6         1 WOX       0.114000
     15 N14          2.3200   -11.6980    27.3980 n          1 WOX      -0.398800
     16 C15          1.6590   -12.9850    27.2340 c3         1 WOX       0.164300
     17 C16          0.4330   -13.1170    28.0980 ca         1 WOX      -0.184300
     18 C19         -1.7860   -12.3230    28.7330 ca         1 WOX      -0.174000
     19 C20         -1.8640   -13.3140    29.7000 ca         1 WOX      -0.051000
     20 C21         -0.8210   -14.2090    29.8800 ca         1 WOX      -0.174000
     21 C22          0.2990   -14.0890    29.0780 ca         1 WOX       0.223000
     22 F23          1.2970   -14.9640    29.2530 f          1 WOX      -0.172000
     23 C24          2.8760   -11.4430    28.5950 c          1 WOX       0.563000
     24 O25          2.8260   -12.2400    29.5200 o          1 WOX      -0.546000
     25 C26          4.6170   -10.1030    29.8630 c5         1 WOX      -0.158700
     26 H1           2.0390    -8.3650    33.3770 hc         1 WOX       0.051700
     27 H2           2.8120    -7.1610    34.4090 hc         1 WOX       0.051700
     28 H3           2.7740    -6.9500    32.6580 hc         1 WOX       0.051700
     29 H4           5.0030    -7.9120    35.3460 ha         1 WOX       0.136000
     30 H5           7.1350    -9.3040    34.7300 h4         1 WOX       0.152000
     31 H6           4.8040    -9.8110    27.1540 hc         1 WOX       0.057200
     32 H7           4.1500    -8.3080    27.7810 hc         1 WOX       0.057200
     33 H8           3.0720    -8.9270    25.5970 hc         1 WOX       0.064700
     34 H9           1.8780    -8.9550    26.8800 hc         1 WOX       0.064700
     35 H10          1.6280   -10.9820    25.5760 h1         1 WOX       0.043700
     36 H11          3.3530   -11.3060    25.6200 h1         1 WOX       0.043700
     37 H12          1.3800   -13.0770    26.1840 h1         1 WOX       0.062200
     38 H13          2.3560   -13.7980    27.4370 h1         1 WOX       0.062200
     39 H14         -2.5940   -11.6200    28.5790 ha         1 WOX       0.136500
     40 H15         -2.7480   -13.3900    30.3180 ha         1 WOX       0.121000
     41 H16         -0.8710   -14.9860    30.6310 ha         1 WOX       0.136500
     42 H17          4.9110   -11.1170    30.1390 hc         1 WOX       0.086700
     43 H18          5.5130    -9.5770    29.5260 hc         1 WOX       0.086700
     44 F18         -0.5660   -11.2990    27.0200 f          1 WOX      -0.172000
@<TRIPOS>BOND
     1     1     2 1   
     2     1    26 1   
     3     1    27 1   
     4     1    28 1   
     5     2     3 1   
     6     2     5 2   
     7     3     4 2   
     8     3    29 1   
     9     4     8 1   
    10     4    30 1   
    11     5     8 1   
    12     5     9 1   
    13     6    12 1   
    14     6    13 1   
    15     6    31 1   
    16     6    32 1   
    17     7    17 ar  
    18     7    18 ar  
    19     7    44 1   
    20     9    10 2   
    21     9    25 1   
    22    10    11 1   
    23    11    12 1   
    24    12    23 1   
    25    12    25 1   
    26    13    14 1   
    27    13    33 1   
    28    13    34 1   
    29    14    15 1   
    30    14    35 1   
    31    14    36 1   
    32    15    16 1   
    33    15    23 1   
    34    16    17 1   
    35    16    37 1   
    36    16    38 1   
    37    17    21 ar  
    38    18    19 ar  
    39    18    39 1   
    40    19    20 ar  
    41    19    40 1   
    42    20    21 ar  
    43    20    41 1   
    44    21    22 1   
    45    23    24 2   
    46    25    42 1   
    47    25    43 1   
@<TRIPOS>SUBSTRUCTURE
     1 WOX         1 TEMP              0 ****  ****    0 ROOT
