@<TRIPOS>MOLECULE
WOY
   16    17     1     0     0
SMALL
bcc


@<TRIPOS>ATOM
      1 N1          -0.9390    15.0950     1.6510 nb         1 WOY      -0.765000
      2 C4          -2.1000    15.0810     1.0140 ca         1 WOY       0.686200
      3 C5          -4.3810    15.0430     0.6300 c5         1 WOY       0.215800
      4 C           -3.6760    14.8960    -0.7390 c5         1 WOY      -0.020100
      5 N2          -3.2970    15.3530     1.5560 nu         1 WOY      -0.871900
      6 C1          -2.2300    14.7820    -0.3570 ca         1 WOY      -0.393900
      7 C3           0.1120    14.8030     0.8820 ca         1 WOY       0.678900
      8 N            0.1200    14.5090    -0.4010 nb         1 WOY      -0.740000
      9 C2          -1.0780    14.5030    -1.0260 ca         1 WOY       0.474200
     10 H1          -5.1270    15.8370     0.6260 h1         1 WOY       0.047700
     11 H2          -4.8800    14.1160     0.9220 h1         1 WOY       0.047700
     12 H3          -3.8410    15.7750    -1.3660 hc         1 WOY       0.061200
     13 H4          -4.0450    14.0330    -1.2920 hc         1 WOY       0.061200
     14 H5          -3.4380    15.3930     2.5510 hn         1 WOY       0.453800
     15 H6           1.0740    14.8070     1.3850 h5         1 WOY       0.045100
     16 H7          -1.0790    14.2610    -2.0840 h4         1 WOY       0.020100
@<TRIPOS>BOND
     1     1     2 ar  
     2     1     7 ar  
     3     2     5 1   
     4     2     6 ar  
     5     3     4 1   
     6     3     5 1   
     7     3    10 1   
     8     3    11 1   
     9     4     6 1   
    10     4    12 1   
    11     4    13 1   
    12     5    14 1   
    13     6     9 ar  
    14     7     8 ar  
    15     7    15 1   
    16     8     9 ar  
    17     9    16 1   
@<TRIPOS>SUBSTRUCTURE
     1 WOY         1 TEMP              0 ****  ****    0 ROOT
