@<TRIPOS>MOLECULE
WOY
   16    17     1     0     0
SMALL
No Charge or Current Charge


@<TRIPOS>ATOM
      1 N1          -0.9490    15.1450     1.6590 nb         1 WOY      -0.239000
      2 C4          -2.1110    15.1700     0.9950 ca         1 WOY       0.357900
      3 C5          -4.3890    15.0230     0.6370 c5         1 WOY       0.215800
      4 C           -3.6720    14.9500    -0.7760 c5         1 WOY      -0.020100
      5 N2          -3.3090    15.5280     1.5630 nu         1 WOY      -0.927100
      6 C1          -2.2420    14.8440    -0.3250 ca         1 WOY      -0.263300
      7 C3           0.1160    14.7700     0.9110 ca         1 WOY       0.152900
      8 N            0.1050    14.4290    -0.4040 nb         1 WOY      -0.214000
      9 C2          -1.0930    14.4660    -1.0330 ca         1 WOY       0.145900
     10 H1          -5.2810    15.6660     0.6190 h1         1 WOY       0.047700
     11 H2          -4.7160    14.0160     0.9340 h1         1 WOY       0.047700
     12 H3          -3.8440    15.8600    -1.3610 hc         1 WOY       0.061200
     13 H4          -4.0120    14.0950    -1.3700 hc         1 WOY       0.061200
     14 H5          -3.3660    15.3950     2.5760 hn         1 WOY       0.509000
     15 H6           1.0810    14.7390     1.4140 h5         1 WOY       0.045100
     16 H7          -1.1220    14.1910    -2.0870 h4         1 WOY       0.020100
@<TRIPOS>BOND
     1     1     2 ar  
     2     1     7 ar  
     3     2     5 1   
     4     2     6 ar  
     5     3     4 1   
     6     3     5 1   
     7     3    10 1   
     8     3    11 1   
     9     4     6 1   
    10     4    12 1   
    11     4    13 1   
    12     5    14 1   
    13     6     9 ar  
    14     7     8 ar  
    15     7    15 1   
    16     8     9 ar  
    17     9    16 1   
@<TRIPOS>SUBSTRUCTURE
     1 WOY         1 TEMP              0 ****  ****    0 ROOT
