@<TRIPOS>MOLECULE
WP0
   49    52     1     0     0
SMALL
abcg2


@<TRIPOS>ATOM
      1 C1           3.9260    -5.2070   -19.5210 cc         1 WP0       0.067600
      2 C2           3.4240    -5.7220   -20.7140 cd         1 WP0      -0.328500
      3 C3           2.0960    -5.2350   -21.0050 cd         1 WP0      -0.018300
      4 C4           1.6340    -4.3980   -20.0380 cc         1 WP0      -0.282300
      5 S5           2.7880    -4.1640   -18.7500 ss         1 WP0       0.302000
      6 C6           0.0680    -4.6320   -22.3610 c6         1 WP0      -0.070400
      7 C7          -0.6410    -4.4120   -21.0260 c6         1 WP0      -0.071400
      8 C8           0.2930    -3.7300   -20.0210 c6         1 WP0       0.011900
      9 C9           1.2710    -5.5710   -22.2190 c6         1 WP0      -0.014100
     10 C10          4.1900    -6.6500   -21.4930 cd         1 WP0       0.637500
     11 N11          5.1660    -5.4940   -19.0090 ns         1 WP0      -0.355100
     12 C12          5.6510    -5.0830   -17.8000 c          1 WP0       0.628100
     13 O13          4.9970    -4.3320   -17.0820 o          1 WP0      -0.579100
     14 C14          7.0160    -5.6120   -17.4040 c6         1 WP0      -0.115700
     15 C15          6.9660    -7.0960   -16.9030 c6         1 WP0      -0.178700
     16 C16          7.2570    -8.0720   -18.0420 c6         1 WP0      -0.060400
     17 C17          8.6870    -7.8750   -18.5920 c6         1 WP0      -0.077400
     18 C18          9.2100    -6.4440   -18.3730 c6         1 WP0      -0.065400
     19 C19          8.0790    -5.4290   -18.5160 c6         1 WP0      -0.074400
     20 C20          5.6620    -7.3840   -16.1280 c          1 WP0       0.704000
     21 O21          5.6800    -7.1440   -14.8920 o          1 WP0      -0.722000
     22 O22          4.6770    -7.8120   -16.7820 o          1 WP0      -0.722000
     23 N23          5.4280    -7.0400   -21.2800 nc         1 WP0      -0.796000
     24 C24          5.6680    -7.9430   -22.2830 cc         1 WP0       0.587300
     25 N25          4.6560    -8.1180   -23.0880 nd         1 WP0      -0.420300
     26 O26          3.6570    -7.2570   -22.5670 os         1 WP0      -0.123700
     27 C27          6.9600    -8.6560   -22.4400 c3         1 WP0      -0.124400
     28 H28         -0.6250    -5.0420   -23.0990 hc         1 WP0       0.033200
     29 H29          0.4080    -3.6650   -22.7460 hc         1 WP0       0.033200
     30 H31         -1.5380    -3.8040   -21.1630 hc         1 WP0       0.037700
     31 H30         -0.9630    -5.3780   -20.6230 hc         1 WP0       0.037700
     32 H33         -0.1370    -3.7620   -19.0160 hc         1 WP0       0.041200
     33 H32          0.4000    -2.6700   -20.2770 hc         1 WP0       0.041200
     34 H34          1.8910    -5.5200   -23.1160 hc         1 WP0       0.055700
     35 H35          0.9300    -6.6090   -22.1480 hc         1 WP0       0.055700
     36 H36          5.7110    -6.1280   -19.5900 hn         1 WP0       0.373500
     37 H37          7.2970    -5.0010   -16.5470 hc         1 WP0       0.077700
     38 H38          7.7750    -7.1790   -16.1740 hc         1 WP0       0.044700
     39 H40          7.1310    -9.0960   -17.6850 hc         1 WP0       0.048700
     40 H39          6.5210    -7.9440   -18.8360 hc         1 WP0       0.048700
     41 H42          9.3700    -8.5830   -18.1160 hc         1 WP0       0.019200
     42 H41          8.6950    -8.1050   -19.6600 hc         1 WP0       0.019200
     43 H44          9.6540    -6.3530   -17.3780 hc         1 WP0       0.027700
     44 H43         10.0040    -6.2210   -19.0890 hc         1 WP0       0.027700
     45 H46          7.6350    -5.5530   -19.5060 hc         1 WP0       0.031200
     46 H45          8.4590    -4.4060   -18.4780 hc         1 WP0       0.031200
     47 H48          7.7650    -7.9340   -22.5840 hc         1 WP0       0.059033
     48 H49          7.1800    -9.2220   -21.5340 hc         1 WP0       0.059033
     49 H50          6.9250    -9.3320   -23.2910 hc         1 WP0       0.059033
@<TRIPOS>BOND
     1     1     2 2   
     2     1     5 1   
     3     1    11 1   
     4     2     3 1   
     5     2    10 1   
     6     3     4 2   
     7     3     9 1   
     8     4     5 1   
     9     4     8 1   
    10     6     7 1   
    11     6     9 1   
    12     6    28 1   
    13     6    29 1   
    14     7     8 1   
    15     7    30 1   
    16     7    31 1   
    17     8    32 1   
    18     8    33 1   
    19     9    34 1   
    20     9    35 1   
    21    10    23 2   
    22    10    26 1   
    23    11    12 1   
    24    11    36 1   
    25    12    13 2   
    26    12    14 1   
    27    14    15 1   
    28    14    19 1   
    29    14    37 1   
    30    15    16 1   
    31    15    20 1   
    32    15    38 1   
    33    16    17 1   
    34    16    39 1   
    35    16    40 1   
    36    17    18 1   
    37    17    41 1   
    38    17    42 1   
    39    18    19 1   
    40    18    43 1   
    41    18    44 1   
    42    19    45 1   
    43    19    46 1   
    44    20    21 1   
    45    20    22 1   
    46    23    24 1   
    47    24    25 2   
    48    24    27 1   
    49    25    26 1   
    50    27    47 1   
    51    27    48 1   
    52    27    49 1   
@<TRIPOS>SUBSTRUCTURE
     1 WP0         1 TEMP              0 ****  ****    0 ROOT
