@<TRIPOS>MOLECULE
WP0
   49    52     1     0     0
SMALL
No Charge or Current Charge


@<TRIPOS>ATOM
      1 C1           3.8140    -5.1790   -19.4090 cc         1 WP0       0.067600
      2 C2           3.3650    -5.6690   -20.6270 cd         1 WP0      -0.328500
      3 C3           2.0660    -5.1670   -20.9960 cd         1 WP0      -0.018300
      4 C4           1.5300    -4.3300   -20.0420 cc         1 WP0      -0.282300
      5 S5           2.6230    -4.0910   -18.6870 ss         1 WP0       0.302000
      6 C6           0.0600    -4.6200   -22.4930 c6         1 WP0      -0.070400
      7 C7          -0.7160    -4.4020   -21.1760 c6         1 WP0      -0.071400
      8 C8           0.1700    -3.6760   -20.1380 c6         1 WP0       0.011900
      9 C9           1.3080    -5.5140   -22.2740 c6         1 WP0      -0.014100
     10 C10          4.1500    -6.6020   -21.4230 cd         1 WP0       0.637500
     11 N11          5.0360    -5.5310   -18.8480 ns         1 WP0      -0.355100
     12 C12          5.6320    -5.0890   -17.6850 c          1 WP0       0.628100
     13 O13          5.1200    -4.2480   -16.9570 o          1 WP0      -0.579100
     14 C14          7.0600    -5.6270   -17.3910 c6         1 WP0      -0.115700
     15 C15          7.0730    -7.1250   -16.8750 c6         1 WP0      -0.178700
     16 C16          7.3580    -8.1480   -18.0090 c6         1 WP0      -0.060400
     17 C17          8.7570    -7.9180   -18.6460 c6         1 WP0      -0.077400
     18 C18          9.2160    -6.4350   -18.5880 c6         1 WP0      -0.065400
     19 C19          8.0090    -5.4720   -18.6380 c6         1 WP0      -0.074400
     20 C20          5.8430    -7.5160   -16.0090 c          1 WP0       0.704000
     21 O21          6.0250    -7.7210   -14.8190 o          1 WP0      -0.722000
     22 O22          4.7650    -7.6650   -16.5620 o          1 WP0      -0.722000
     23 N23          5.3480    -7.0550   -21.1070 nc         1 WP0      -0.796000
     24 C24          5.6220    -7.8800   -22.1500 cc         1 WP0       0.587300
     25 N25          4.7010    -7.9840   -23.0880 nd         1 WP0      -0.420300
     26 O26          3.6950    -7.1200   -22.6030 os         1 WP0      -0.123700
     27 C27          6.9230    -8.6180   -22.1870 c3         1 WP0      -0.124400
     28 H28         -0.5950    -5.0740   -23.2490 hc         1 WP0       0.033200
     29 H29          0.3720    -3.6460   -22.8950 hc         1 WP0       0.033200
     30 H31         -1.6260    -3.8160   -21.3640 hc         1 WP0       0.037700
     31 H30         -1.0430    -5.3710   -20.7740 hc         1 WP0       0.037700
     32 H33         -0.3340    -3.6750   -19.1610 hc         1 WP0       0.041200
     33 H32          0.2820    -2.6220   -20.4270 hc         1 WP0       0.041200
     34 H34          1.9550    -5.4070   -23.1540 hc         1 WP0       0.055700
     35 H35          0.9930    -6.5650   -22.2390 hc         1 WP0       0.055700
     36 H36          5.5870    -6.2060   -19.3710 hn         1 WP0       0.373500
     37 H37          7.4490    -5.0050   -16.5730 hc         1 WP0       0.077700
     38 H38          7.9270    -7.1810   -16.1850 hc         1 WP0       0.044700
     39 H40          7.3010    -9.1740   -17.6180 hc         1 WP0       0.048700
     40 H39          6.5790    -8.0760   -18.7800 hc         1 WP0       0.048700
     41 H42          9.5040    -8.5420   -18.1370 hc         1 WP0       0.019200
     42 H41          8.7370    -8.2610   -19.6890 hc         1 WP0       0.019200
     43 H44          9.7850    -6.2570   -17.6650 hc         1 WP0       0.027700
     44 H43          9.9040    -6.2260   -19.4190 hc         1 WP0       0.027700
     45 H46          7.4760    -5.6510   -19.5810 hc         1 WP0       0.031200
     46 H45          8.3650    -4.4340   -18.6930 hc         1 WP0       0.031200
     47 H48          7.7640    -7.9210   -22.0950 hc         1 WP0       0.059033
     48 H49          6.9810    -9.3350   -21.3610 hc         1 WP0       0.059033
     49 H50          7.0400    -9.1690   -23.1260 hc         1 WP0       0.059033
@<TRIPOS>BOND
     1     1     2 2   
     2     1     5 1   
     3     1    11 1   
     4     2     3 1   
     5     2    10 1   
     6     3     4 2   
     7     3     9 1   
     8     4     5 1   
     9     4     8 1   
    10     6     7 1   
    11     6     9 1   
    12     6    28 1   
    13     6    29 1   
    14     7     8 1   
    15     7    30 1   
    16     7    31 1   
    17     8    32 1   
    18     8    33 1   
    19     9    34 1   
    20     9    35 1   
    21    10    23 2   
    22    10    26 1   
    23    11    12 1   
    24    11    36 1   
    25    12    13 2   
    26    12    14 1   
    27    14    15 1   
    28    14    19 1   
    29    14    37 1   
    30    15    16 1   
    31    15    20 1   
    32    15    38 1   
    33    16    17 1   
    34    16    39 1   
    35    16    40 1   
    36    17    18 1   
    37    17    41 1   
    38    17    42 1   
    39    18    19 1   
    40    18    43 1   
    41    18    44 1   
    42    19    45 1   
    43    19    46 1   
    44    20    21 1   
    45    20    22 1   
    46    23    24 1   
    47    24    25 2   
    48    24    27 1   
    49    25    26 1   
    50    27    47 1   
    51    27    48 1   
    52    27    49 1   
@<TRIPOS>SUBSTRUCTURE
     1 WP0         1 TEMP              0 ****  ****    0 ROOT
