@<TRIPOS>MOLECULE
WP1
   27    28     1     0     0
SMALL
No Charge or Current Charge


@<TRIPOS>ATOM
      1 CAG         -2.1600     1.1510    -0.1930 c5         1 WP1      -0.047100
      2 CAH         -2.2240    -0.4040     0.0840 c5         1 WP1       0.171000
      3 CAJ         -2.6000    -0.7150     1.5550 c3         1 WP1      -0.096100
      4 CAK         -3.2010    -1.1450    -0.8570 c3         1 WP1      -0.096100
      5 OAI         -0.8800    -0.9440    -0.1420 os         1 WP1      -0.306100
      6 CAC         -0.0260     0.1260    -0.0690 ca         1 WP1       0.187100
      7 CAB         -0.6810     1.3380    -0.0900 ca         1 WP1      -0.186300
      8 CAA          0.0180     2.5490    -0.0400 ca         1 WP1      -0.037000
      9 CAF          1.4210     2.5050     0.0330 ca         1 WP1      -0.162000
     10 CAE          2.1000     1.2680     0.0480 ca         1 WP1      -0.054000
     11 CAD          1.3830     0.0420    -0.0070 ca         1 WP1      -0.191600
     12 CAL          2.0970    -1.2930     0.0060 c          1 WP1       0.624700
     13 OAN          1.5290    -2.3710    -0.0120 o          1 WP1      -0.586100
     14 NAM          3.4480    -1.2830     0.0440 nt         1 WP1      -0.609000
     15 H1          -2.5350     1.4140    -1.1890 hc         1 WP1       0.064700
     16 H2          -2.7220     1.7380     0.5410 hc         1 WP1       0.064700
     17 H3          -3.6120    -0.3620     1.7880 hc         1 WP1       0.048367
     18 H4          -2.5680    -1.7920     1.7550 hc         1 WP1       0.048367
     19 H5          -1.9100    -0.2250     2.2520 hc         1 WP1       0.048367
     20 H6          -2.9270    -0.9930    -1.9080 hc         1 WP1       0.048367
     21 H7          -3.1980    -2.2250    -0.6660 hc         1 WP1       0.048367
     22 H8          -4.2280    -0.7840    -0.7250 hc         1 WP1       0.048367
     23 H9          -0.5090     3.5000    -0.0600 ha         1 WP1       0.116000
     24 H10          1.9870     3.4330     0.0740 ha         1 WP1       0.118000
     25 H11          3.1850     1.2840     0.1030 ha         1 WP1       0.113000
     26 H12          3.9510    -0.4100     0.0590 hn         1 WP1       0.310500
     27 H13          3.9440    -2.1620     0.0540 hn         1 WP1       0.310500
@<TRIPOS>BOND
     1     1     2 1   
     2     1     7 1   
     3     1    15 1   
     4     1    16 1   
     5     2     3 1   
     6     2     4 1   
     7     2     5 1   
     8     3    17 1   
     9     3    18 1   
    10     3    19 1   
    11     4    20 1   
    12     4    21 1   
    13     4    22 1   
    14     5     6 1   
    15     6     7 ar  
    16     6    11 ar  
    17     7     8 ar  
    18     8     9 ar  
    19     8    23 1   
    20     9    10 ar  
    21     9    24 1   
    22    10    11 ar  
    23    10    25 1   
    24    11    12 1   
    25    12    13 2   
    26    12    14 1   
    27    14    26 1   
    28    14    27 1   
@<TRIPOS>SUBSTRUCTURE
     1 WP1         1 TEMP              0 ****  ****    0 ROOT
