@<TRIPOS>MOLECULE
WP1
   27    28     1     0     0
SMALL
abcg2


@<TRIPOS>ATOM
      1 CAG         -2.1510     1.1100    -0.1170 c5         1 WP1      -0.047100
      2 CAH         -2.2030    -0.4150     0.1190 c5         1 WP1       0.171000
      3 CAJ         -2.4770    -0.7420     1.5790 c3         1 WP1      -0.096100
      4 CAK         -3.1610    -1.1350    -0.8060 c3         1 WP1      -0.096100
      5 OAI         -0.8560    -0.8870    -0.1870 os         1 WP1      -0.306100
      6 CAC         -0.0170     0.1570    -0.1710 ca         1 WP1       0.187100
      7 CAB         -0.6780     1.3800    -0.1080 ca         1 WP1      -0.186300
      8 CAA          0.0340     2.5590    -0.0830 ca         1 WP1      -0.037000
      9 CAF          1.4280     2.5070    -0.1100 ca         1 WP1      -0.162000
     10 CAE          2.0770     1.2860    -0.1540 ca         1 WP1      -0.054000
     11 CAD          1.3720     0.0750    -0.1800 ca         1 WP1      -0.191600
     12 CAL          2.0650    -1.2430    -0.2500 c          1 WP1       0.624700
     13 OAN          1.5850    -2.1930    -0.8520 o          1 WP1      -0.586100
     14 NAM          3.2520    -1.3030     0.3780 nt         1 WP1      -0.609000
     15 H1          -2.5950     1.3860    -1.0780 hc         1 WP1       0.064700
     16 H2          -2.6920     1.6550     0.6580 hc         1 WP1       0.064700
     17 H3          -3.4850    -0.4270     1.8480 hc         1 WP1       0.048367
     18 H4          -2.3990    -1.8150     1.7610 hc         1 WP1       0.048367
     19 H5          -1.7790    -0.2270     2.2410 hc         1 WP1       0.048367
     20 H6          -2.9410    -0.9170    -1.8520 hc         1 WP1       0.048367
     21 H7          -3.1190    -2.2150    -0.6590 hc         1 WP1       0.048367
     22 H8          -4.1820    -0.8110    -0.6040 hc         1 WP1       0.048367
     23 H9          -0.4800     3.5120    -0.0500 ha         1 WP1       0.116000
     24 H10          2.0070     3.4210    -0.1000 ha         1 WP1       0.118000
     25 H11          3.1590     1.2720    -0.1870 ha         1 WP1       0.113000
     26 H12          3.5600    -0.5800     1.0050 hn         1 WP1       0.310500
     27 H13          3.7600    -2.1720     0.4000 hn         1 WP1       0.310500
@<TRIPOS>BOND
     1     1     2 1   
     2     1     7 1   
     3     1    15 1   
     4     1    16 1   
     5     2     3 1   
     6     2     4 1   
     7     2     5 1   
     8     3    17 1   
     9     3    18 1   
    10     3    19 1   
    11     4    20 1   
    12     4    21 1   
    13     4    22 1   
    14     5     6 1   
    15     6     7 ar  
    16     6    11 ar  
    17     7     8 ar  
    18     8     9 ar  
    19     8    23 1   
    20     9    10 ar  
    21     9    24 1   
    22    10    11 ar  
    23    10    25 1   
    24    11    12 1   
    25    12    13 2   
    26    12    14 1   
    27    14    26 1   
    28    14    27 1   
@<TRIPOS>SUBSTRUCTURE
     1 WP1         1 TEMP              0 ****  ****    0 ROOT
