@<TRIPOS>MOLECULE
WP2
   41    44     1     0     0
SMALL
abcg2


@<TRIPOS>ATOM
      1 C1         -12.1260    -0.9330    19.0530 c3         1 WP2      -0.033800
      2 C2         -11.5950     0.2850    19.7330 cc         1 WP2      -0.039300
      3 C4         -11.6050     2.5170    20.3990 cd         1 WP2      -0.231000
      4 C7          -9.4480    -0.6800    20.7260 cf         1 WP2       0.393900
      5 C10         -7.6040    -1.8610    21.5110 c5         1 WP2       0.046000
      6 C11         -6.1450    -1.9480    21.0930 c5         1 WP2      -0.092400
      7 C12         -5.4090    -1.8030    22.4220 c5         1 WP2       0.104000
      8 N13         -6.3350    -2.4080    23.3660 n          1 WP2      -0.417800
      9 C14         -5.9790    -2.7590    24.7230 c3         1 WP2       0.178300
     10 C16         -5.3410    -5.1730    24.3570 ca         1 WP2       0.221000
     11 C20         -7.2370    -6.0940    26.1190 ca         1 WP2      -0.173000
     12 C21         -7.0870    -4.7430    25.8680 ca         1 WP2       0.221000
     13 C23         -7.5970    -2.4630    22.9150 c          1 WP2       0.554000
     14 C3         -12.2590     1.5400    19.7120 cc         1 WP2      -0.137000
     15 S5         -10.1630     1.9340    21.0960 ss         1 WP2       0.206000
     16 C6         -10.4250     0.3490    20.4580 cd         1 WP2      -0.264900
     17 N8          -9.5500    -1.8700    20.2770 n2         1 WP2      -0.246700
     18 O9          -8.4700    -2.6160    20.6640 os         1 WP2      -0.249000
     19 C15         -6.1400    -4.2320    24.9920 ca         1 WP2      -0.192300
     20 C18         -5.4470    -6.5330    24.5660 ca         1 WP2      -0.173000
     21 C19         -6.4080    -6.9860    25.4590 ca         1 WP2      -0.049000
     22 F22         -7.8920    -3.8890    26.5110 f          1 WP2      -0.171500
     23 O24         -8.5710    -2.8710    23.5180 o          1 WP2      -0.512000
     24 C25         -8.2040    -0.4520    21.5290 c5         1 WP2      -0.157700
     25 H1         -11.4250    -1.3200    18.3130 hc         1 WP2       0.053367
     26 H2         -12.3060    -1.7400    19.7640 hc         1 WP2       0.053367
     27 H3         -13.0650    -0.7100    18.5480 hc         1 WP2       0.053367
     28 H4         -11.8980     3.5460    20.5330 h4         1 WP2       0.152000
     29 H5          -5.9430    -2.9340    20.6690 hc         1 WP2       0.074700
     30 H6          -5.8590    -1.1920    20.3640 hc         1 WP2       0.074700
     31 H7          -4.4510    -2.3190    22.4290 h1         1 WP2       0.051200
     32 H8          -5.2280    -0.7540    22.6740 h1         1 WP2       0.051200
     33 H9          -4.9420    -2.4610    24.8800 h1         1 WP2       0.063200
     34 H10         -6.5760    -2.1780    25.4250 h1         1 WP2       0.063200
     35 H11         -7.9920    -6.4360    26.8150 ha         1 WP2       0.138000
     36 H12        -13.1960     1.7020    19.1960 ha         1 WP2       0.137000
     37 H13         -4.7950    -7.2190    24.0430 ha         1 WP2       0.138000
     38 H14         -6.5100    -8.0470    25.6420 ha         1 WP2       0.122000
     39 H15         -7.5530     0.2870    21.0550 hc         1 WP2       0.081700
     40 H16         -8.4310    -0.0850    22.5330 hc         1 WP2       0.081700
     41 F17         -4.4190    -4.7250    23.4920 f          1 WP2      -0.171500
@<TRIPOS>BOND
     1     1     2 1   
     2     1    25 1   
     3     1    26 1   
     4     1    27 1   
     5     2    14 1   
     6     2    16 2   
     7     3    14 2   
     8     3    15 1   
     9     3    28 1   
    10     4    16 1   
    11     4    17 2   
    12     4    24 1   
    13     5     6 1   
    14     5    13 1   
    15     5    18 1   
    16     5    24 1   
    17     6     7 1   
    18     6    29 1   
    19     6    30 1   
    20     7     8 1   
    21     7    31 1   
    22     7    32 1   
    23     8     9 1   
    24     8    13 1   
    25     9    19 1   
    26     9    33 1   
    27     9    34 1   
    28    10    19 ar  
    29    10    20 ar  
    30    10    41 1   
    31    11    12 ar  
    32    11    21 ar  
    33    11    35 1   
    34    12    19 ar  
    35    12    22 1   
    36    13    23 2   
    37    14    36 1   
    38    15    16 1   
    39    17    18 1   
    40    20    21 ar  
    41    20    37 1   
    42    21    38 1   
    43    24    39 1   
    44    24    40 1   
@<TRIPOS>SUBSTRUCTURE
     1 WP2         1 TEMP              0 ****  ****    0 ROOT
