@<TRIPOS>MOLECULE
WP2
   41    44     1     0     0
SMALL
No Charge or Current Charge


@<TRIPOS>ATOM
      1 C1         -11.9250    -1.4480    20.3710 c3         1 WP2      -0.033800
      2 C2         -11.3770    -0.0440    20.3440 cc         1 WP2      -0.039300
      3 C4         -11.6090     2.2880    20.5060 cd         1 WP2      -0.231000
      4 C7          -8.8870    -0.5250    20.0090 cf         1 WP2       0.393900
      5 C10         -7.2330    -1.7850    21.0520 c5         1 WP2       0.046000
      6 C11         -5.6860    -1.9380    21.0170 c5         1 WP2      -0.092400
      7 C12         -5.3170    -1.6340    22.5020 c5         1 WP2       0.104000
      8 N13         -6.4950    -2.1610    23.2270 n          1 WP2      -0.417800
      9 C14         -6.4780    -2.5670    24.6450 c3         1 WP2       0.178300
     10 C16         -5.5850    -4.9510    24.4710 ca         1 WP2       0.221000
     11 C20         -7.9030    -6.0040    25.6400 ca         1 WP2      -0.173000
     12 C21         -7.7760    -4.6180    25.4510 ca         1 WP2       0.221000
     13 C23         -7.6510    -2.2980    22.4500 c          1 WP2       0.554000
     14 C3         -12.2370     1.0720    20.5220 cc         1 WP2      -0.137000
     15 S5          -9.8680     2.0970    20.2780 ss         1 WP2       0.206000
     16 C6         -10.0620     0.3360    20.1690 cd         1 WP2      -0.264900
     17 N8          -8.9320    -1.7060    19.4860 n2         1 WP2      -0.246700
     18 O9          -7.8650    -2.5060    19.9610 os         1 WP2      -0.249000
     19 C15         -6.6180    -4.0730    24.8580 ca         1 WP2      -0.192300
     20 C18         -5.7100    -6.3370    24.6590 ca         1 WP2      -0.173000
     21 C19         -6.8710    -6.8690    25.2420 ca         1 WP2      -0.049000
     22 F22         -8.7840    -3.8130    25.8580 f          1 WP2      -0.171500
     23 O24         -8.7050    -2.8030    22.8160 o          1 WP2      -0.512000
     24 C25         -7.6390    -0.2940    20.8500 c5         1 WP2      -0.157700
     25 H1         -11.8690    -1.9080    19.3780 hc         1 WP2       0.053367
     26 H2         -11.3590    -2.0750    21.0700 hc         1 WP2       0.053367
     27 H3         -12.9750    -1.4650    20.6880 hc         1 WP2       0.053367
     28 H4         -12.0420     3.2740    20.6220 h4         1 WP2       0.152000
     29 H5          -5.4060    -2.9660    20.7600 hc         1 WP2       0.074700
     30 H6          -5.1800    -1.2750    20.3070 hc         1 WP2       0.074700
     31 H7          -4.3820    -2.1240    22.8030 h1         1 WP2       0.051200
     32 H8          -5.2140    -0.5550    22.6770 h1         1 WP2       0.051200
     33 H9          -5.5320    -2.2350    25.0920 h1         1 WP2       0.063200
     34 H10         -7.2780    -2.0280    25.1680 h1         1 WP2       0.063200
     35 H11         -8.8030    -6.4040    26.0980 ha         1 WP2       0.138000
     36 H12        -13.3080     0.9570    20.6650 ha         1 WP2       0.137000
     37 H13         -4.9030    -6.9970    24.3520 ha         1 WP2       0.138000
     38 H14         -6.9680    -7.9430    25.3890 ha         1 WP2       0.122000
     39 H15         -6.8990     0.2840    20.2860 hc         1 WP2       0.081700
     40 H16         -7.8470     0.2350    21.7870 hc         1 WP2       0.081700
     41 F17         -4.4500    -4.4700    23.9180 f          1 WP2      -0.171500
@<TRIPOS>BOND
     1     1     2 1   
     2     1    25 1   
     3     1    26 1   
     4     1    27 1   
     5     2    14 1   
     6     2    16 2   
     7     3    14 2   
     8     3    15 1   
     9     3    28 1   
    10     4    16 1   
    11     4    17 2   
    12     4    24 1   
    13     5     6 1   
    14     5    13 1   
    15     5    18 1   
    16     5    24 1   
    17     6     7 1   
    18     6    29 1   
    19     6    30 1   
    20     7     8 1   
    21     7    31 1   
    22     7    32 1   
    23     8     9 1   
    24     8    13 1   
    25     9    19 1   
    26     9    33 1   
    27     9    34 1   
    28    10    19 ar  
    29    10    20 ar  
    30    10    41 1   
    31    11    12 ar  
    32    11    21 ar  
    33    11    35 1   
    34    12    19 ar  
    35    12    22 1   
    36    13    23 2   
    37    14    36 1   
    38    15    16 1   
    39    17    18 1   
    40    20    21 ar  
    41    20    37 1   
    42    21    38 1   
    43    24    39 1   
    44    24    40 1   
@<TRIPOS>SUBSTRUCTURE
     1 WP2         1 TEMP              0 ****  ****    0 ROOT
