@<TRIPOS>MOLECULE
WP3
   48    51     1     0     0
SMALL
No Charge or Current Charge


@<TRIPOS>ATOM
      1 C10         94.0750    13.9580    -7.7430 ca         1 WP3       0.006200
      2 C11         92.7260    14.3460    -7.5750 ca         1 WP3      -0.111000
      3 C13         94.7380    15.7970    -6.2590 ca         1 WP3      -0.092000
      4 C15         95.0770    14.7070    -7.0810 ca         1 WP3      -0.119000
      5 C18         94.5910     7.6130   -12.9670 c          1 WP3       0.648700
      6 C19         93.8560     7.0180   -14.1380 cc         1 WP3      -0.161600
      7 C21         92.7010     7.4210   -14.8230 cd         1 WP3      -0.235600
      8 C22         92.5370     6.4970   -15.8790 cd         1 WP3       0.262900
      9 C26         91.7230     8.5110   -14.5000 c          1 WP3       0.643700
     10 C1          94.6050     9.6140   -11.4810 cc         1 WP3       0.516900
     11 C2          95.9930     9.5910   -11.0420 cc         1 WP3      -0.214000
     12 C3          96.4850    10.4430   -10.0640 cd         1 WP3      -0.050000
     13 N4          93.6800    10.4590   -11.0490 nd         1 WP3      -0.682000
     14 C5          94.2180    11.2770   -10.0790 cd         1 WP3       0.427500
     15 N6          95.4900    11.2730    -9.5760 na         1 WP3      -0.094400
     16 C7          95.6750    12.2680    -8.6500 cd         1 WP3      -0.263100
     17 C8          94.4110    12.8290    -8.6260 cc         1 WP3       0.131400
     18 N9          93.5180    12.2270    -9.4920 nc         1 WP3      -0.272600
     19 C12         93.3920    16.1590    -6.0920 ca         1 WP3      -0.144000
     20 C14         92.3920    15.4330    -6.7540 ca         1 WP3       0.158000
     21 F16         91.0970    15.7840    -6.6000 f          1 WP3      -0.184000
     22 O20         95.5860     7.0790   -12.5050 o          1 WP3      -0.595100
     23 N23         93.4660     5.5740   -15.9290 nc         1 WP3      -0.504800
     24 N24         94.2680     5.8890   -14.8620 na         1 WP3       0.165800
     25 N27         90.8940     9.0010   -15.5420 n          1 WP3      -0.392800
     26 O28         91.5980     8.9610   -13.3730 o          1 WP3      -0.620100
     27 C29         89.7580     9.8880   -15.2070 c3         1 WP3       0.085800
     28 C30         91.3030     8.9920   -16.9680 c3         1 WP3       0.085800
     29 H1          91.9290    13.8040    -8.0750 ha         1 WP3       0.158000
     30 H2          95.5200    16.3610    -5.7550 ha         1 WP3       0.116000
     31 H3          96.1270    14.4580    -7.2020 ha         1 WP3       0.111000
     32 H4          91.7310     6.4350   -16.5980 h4         1 WP3       0.048100
     33 H5          95.5010     4.2330   -15.3360 h1         1 WP3       0.071367
     34 H6          96.3570     5.6550   -14.6780 h1         1 WP3       0.071367
     35 H7          95.3780     4.6160   -13.5970 h1         1 WP3       0.071367
     36 H8          96.6870     8.9040   -11.5050 ha         1 WP3       0.170000
     37 H9          97.4980    10.5070    -9.6810 h4         1 WP3       0.149000
     38 H10         96.6000    12.4730    -8.1220 h4         1 WP3       0.232000
     39 H11         93.1240    17.0010    -5.4590 ha         1 WP3       0.131000
     40 H12         93.1910     9.0360   -12.7820 hn         1 WP3       0.394500
     41 H13         89.1850     9.4640   -14.3720 h1         1 WP3       0.048700
     42 H14         90.1330    10.8790   -14.9200 h1         1 WP3       0.048700
     43 H15         89.0890     9.9940   -16.0710 h1         1 WP3       0.048700
     44 H16         92.3880     8.8620   -17.0640 h1         1 WP3       0.048700
     45 H17         90.7810     8.1890   -17.5030 h1         1 WP3       0.048700
     46 H18         91.0380     9.9480   -17.4370 h1         1 WP3       0.048700
     47 N17         94.1100     8.7830   -12.4510 ns         1 WP3      -0.485400
     48 C25         95.4490     5.0460   -14.6030 c3         1 WP3       0.073900
@<TRIPOS>BOND
     1     1     2 ar  
     2     1     4 ar  
     3     1    17 1   
     4     2    20 ar  
     5     2    29 1   
     6     3     4 ar  
     7     3    19 ar  
     8     3    30 1   
     9     4    31 1   
    10     5     6 1   
    11     5    22 2   
    12     5    47 1   
    13     6     7 2   
    14     6    24 1   
    15     7     8 1   
    16     7     9 1   
    17     8    23 2   
    18     8    32 1   
    19     9    25 1   
    20     9    26 2   
    21    10    11 1   
    22    10    13 2   
    23    10    47 1   
    24    11    12 2   
    25    11    36 1   
    26    12    15 1   
    27    12    37 1   
    28    13    14 1   
    29    14    15 1   
    30    14    18 2   
    31    15    16 1   
    32    16    17 2   
    33    16    38 1   
    34    17    18 1   
    35    19    20 ar  
    36    19    39 1   
    37    20    21 1   
    38    23    24 1   
    39    24    48 1   
    40    25    27 1   
    41    25    28 1   
    42    27    41 1   
    43    27    42 1   
    44    27    43 1   
    45    28    44 1   
    46    28    45 1   
    47    28    46 1   
    48    33    48 1   
    49    34    48 1   
    50    35    48 1   
    51    40    47 1   
@<TRIPOS>SUBSTRUCTURE
     1 WP3         1 TEMP              0 ****  ****    0 ROOT
