@<TRIPOS>MOLECULE
WP3
   48    51     1     0     0
SMALL
abcg2


@<TRIPOS>ATOM
      1 C10         94.0410    13.9190    -7.6990 ca         1 WP3       0.006200
      2 C11         92.6800    14.1710    -7.4920 ca         1 WP3      -0.111000
      3 C13         94.5790    15.6620    -6.1050 ca         1 WP3      -0.092000
      4 C15         94.9850    14.6780    -6.9950 ca         1 WP3      -0.119000
      5 C18         94.6980     7.7820   -13.2440 c          1 WP3       0.648700
      6 C19         93.7750     7.0360   -14.1380 cc         1 WP3      -0.161600
      7 C21         92.5520     7.3710   -14.7360 cd         1 WP3      -0.235600
      8 C22         92.2350     6.2560   -15.5290 cd         1 WP3       0.262900
      9 C26         91.6960     8.5600   -14.5080 c          1 WP3       0.643700
     10 C1          94.6520     9.6350   -11.5940 cc         1 WP3       0.516900
     11 C2          96.0580     9.7600   -11.4000 cc         1 WP3      -0.214000
     12 C3          96.5080    10.6960   -10.5230 cd         1 WP3      -0.050000
     13 N4          93.7720    10.3850   -10.9570 nd         1 WP3      -0.682000
     14 C5          94.2270    11.2990   -10.0940 cd         1 WP3       0.427500
     15 N6          95.6040    11.4690    -9.8660 na         1 WP3      -0.094400
     16 C7          95.7390    12.4760    -8.9380 cd         1 WP3      -0.263100
     17 C8          94.4530    12.8750    -8.6390 cc         1 WP3       0.131400
     18 N9          93.5300    12.1440    -9.3550 nc         1 WP3      -0.272600
     19 C12         93.2270    15.9170    -5.8930 ca         1 WP3      -0.144000
     20 C14         92.3130    15.1580    -6.5990 ca         1 WP3       0.158000
     21 F16         90.9880    15.3920    -6.4070 f          1 WP3      -0.184000
     22 O20         95.8980     7.5360   -13.2230 o          1 WP3      -0.595100
     23 N23         93.1640     5.3120   -15.4300 nc         1 WP3      -0.504800
     24 N24         94.0990     5.7990   -14.6020 na         1 WP3       0.165800
     25 N27         91.1140     9.1420   -15.5690 n          1 WP3      -0.392800
     26 O28         91.4910     8.9610   -13.3450 o          1 WP3      -0.620100
     27 C29         90.1310    10.1990   -15.3550 c3         1 WP3       0.085800
     28 C30         91.4860     8.9170   -16.9610 c3         1 WP3       0.085800
     29 H1          91.9260    13.6050    -8.0180 ha         1 WP3       0.158000
     30 H2          95.3200    16.2400    -5.5680 ha         1 WP3       0.116000
     31 H3          96.0410    14.5000    -7.1430 ha         1 WP3       0.111000
     32 H4          91.3630     6.1010   -16.1440 h4         1 WP3       0.048100
     33 H5          95.0330     3.9730   -14.6500 h1         1 WP3       0.071367
     34 H6          96.1400     5.3580   -14.8320 h1         1 WP3       0.071367
     35 H7          95.4610     4.9750   -13.2390 h1         1 WP3       0.071367
     36 H8          96.7470     9.1300   -11.9320 ha         1 WP3       0.170000
     37 H9          97.5530    10.8680   -10.3110 h4         1 WP3       0.149000
     38 H10         96.7050    12.7980    -8.5910 h4         1 WP3       0.232000
     39 H11         92.8890    16.6790    -5.2040 ha         1 WP3       0.131000
     40 H12         93.0620     8.8070   -12.5710 hn         1 WP3       0.394500
     41 H13         89.6790    10.0910   -14.3740 h1         1 WP3       0.048700
     42 H14         90.6010    11.1840   -15.4280 h1         1 WP3       0.048700
     43 H15         89.3640    10.1190   -16.1240 h1         1 WP3       0.048700
     44 H16         92.4140     8.3590   -17.0270 h1         1 WP3       0.048700
     45 H17         90.6980     8.3770   -17.4910 h1         1 WP3       0.048700
     46 H18         91.6290     9.8860   -17.4420 h1         1 WP3       0.048700
     47 N17         94.0840     8.7250   -12.4740 ns         1 WP3      -0.485400
     48 C25         95.2660     4.9770   -14.3080 c3         1 WP3       0.073900
@<TRIPOS>BOND
     1     1     2 ar  
     2     1     4 ar  
     3     1    17 1   
     4     2    20 ar  
     5     2    29 1   
     6     3     4 ar  
     7     3    19 ar  
     8     3    30 1   
     9     4    31 1   
    10     5     6 1   
    11     5    22 2   
    12     5    47 1   
    13     6     7 2   
    14     6    24 1   
    15     7     8 1   
    16     7     9 1   
    17     8    23 2   
    18     8    32 1   
    19     9    25 1   
    20     9    26 2   
    21    10    11 1   
    22    10    13 2   
    23    10    47 1   
    24    11    12 2   
    25    11    36 1   
    26    12    15 1   
    27    12    37 1   
    28    13    14 1   
    29    14    15 1   
    30    14    18 2   
    31    15    16 1   
    32    16    17 2   
    33    16    38 1   
    34    17    18 1   
    35    19    20 ar  
    36    19    39 1   
    37    20    21 1   
    38    23    24 1   
    39    24    48 1   
    40    25    27 1   
    41    25    28 1   
    42    27    41 1   
    43    27    42 1   
    44    27    43 1   
    45    28    44 1   
    46    28    45 1   
    47    28    46 1   
    48    33    48 1   
    49    34    48 1   
    50    35    48 1   
    51    40    47 1   
@<TRIPOS>SUBSTRUCTURE
     1 WP3         1 TEMP              0 ****  ****    0 ROOT
