@<TRIPOS>MOLECULE
WP4
   29    30     1     0     0
SMALL
bcc


@<TRIPOS>ATOM
      1 C10        -28.0740    -8.2170   -18.8020 ca         1 WP4      -0.127500
      2 C13        -28.5960    -8.4310   -21.5160 ca         1 WP4      -0.122000
      3 C01        -30.5440    -9.9800   -21.1090 c3         1 WP4       0.204100
      4 C03        -32.2420    -8.2410   -20.8570 c5         1 WP4       0.130500
      5 C04        -32.9720    -8.8300   -19.6460 c5         1 WP4      -0.108400
      6 C05        -34.1670    -7.8730   -19.4160 c5         1 WP4       0.136800
      7 C07        -33.3640    -7.4690   -21.5540 c5         1 WP4       0.132800
      8 C08        -29.3920    -9.1350   -20.6130 ca         1 WP4      -0.124300
      9 C09        -29.1190    -9.0150   -19.2540 ca         1 WP4      -0.122000
     10 C11        -27.2880    -7.5230   -19.7110 ca         1 WP4      -0.126000
     11 C12        -27.5520    -7.6330   -21.0720 ca         1 WP4      -0.127500
     12 N02        -31.6430    -9.2450   -21.7140 n7         1 WP4      -0.795200
     13 N06        -34.1430    -6.8670   -20.4840 n7         1 WP4      -0.772200
     14 H1         -27.8750    -8.1390   -17.7410 ha         1 WP4       0.131000
     15 H2         -28.7890    -8.5130   -22.5800 ha         1 WP4       0.127500
     16 H3         -30.9360   -10.5750   -20.2800 h1         1 WP4       0.058700
     17 H4         -30.1760   -10.6940   -21.8510 h1         1 WP4       0.058700
     18 H5         -31.5030    -7.5070   -20.4980 h1         1 WP4       0.027700
     19 H7         -32.3310    -8.9110   -18.7680 hc         1 WP4       0.053700
     20 H8         -34.1310    -7.3830   -18.4430 h1         1 WP4       0.050200
     21 H9         -35.1050    -8.4310   -19.4540 h1         1 WP4       0.050200
     22 H10        -33.0030    -6.7100   -22.2500 h1         1 WP4       0.060700
     23 H11        -33.9870    -8.1730   -22.1180 h1         1 WP4       0.060700
     24 H12        -29.7260    -9.5590   -18.5380 ha         1 WP4       0.127500
     25 H13        -26.4720    -6.9020   -19.3630 ha         1 WP4       0.131000
     26 H14        -26.9400    -7.0970   -21.7860 ha         1 WP4       0.131000
     27 H15        -31.3170    -8.8020   -22.5650 hn         1 WP4       0.357800
     28 H17        -33.6380    -6.0550   -20.1490 hn         1 WP4       0.340800
     29 H6         -33.3230    -9.8360   -19.8900 hc         1 WP4       0.053700
@<TRIPOS>BOND
     1     1     9 ar  
     2     1    10 ar  
     3     1    14 1   
     4     2     8 ar  
     5     2    11 ar  
     6     2    15 1   
     7     3     8 1   
     8     3    12 1   
     9     3    16 1   
    10     3    17 1   
    11     4     5 1   
    12     4     7 1   
    13     4    12 1   
    14     4    18 1   
    15     5     6 1   
    16     5    19 1   
    17     5    29 1   
    18     6    13 1   
    19     6    20 1   
    20     6    21 1   
    21     7    13 1   
    22     7    22 1   
    23     7    23 1   
    24     8     9 ar  
    25     9    24 1   
    26    10    11 ar  
    27    10    25 1   
    28    11    26 1   
    29    12    27 1   
    30    13    28 1   
@<TRIPOS>SUBSTRUCTURE
     1 WP4         1 TEMP              0 ****  ****    0 ROOT
