@<TRIPOS>MOLECULE
WP4
   29    30     1     0     0
SMALL
No Charge or Current Charge


@<TRIPOS>ATOM
      1 C10        -28.1090    -8.0150   -18.8380 ca         1 WP4      -0.109500
      2 C13        -28.4110    -8.5910   -21.5720 ca         1 WP4      -0.104000
      3 C01        -30.5100    -9.9580   -21.1220 c3         1 WP4       0.204100
      4 C03        -32.2850    -8.1950   -20.7610 c5         1 WP4       0.130500
      5 C04        -33.1600    -9.0000   -19.7700 c5         1 WP4      -0.108400
      6 C05        -34.2170    -7.9390   -19.3360 c5         1 WP4       0.136800
      7 C07        -33.4170    -7.4370   -21.5080 c5         1 WP4       0.132800
      8 C08        -29.3440    -9.0990   -20.6460 ca         1 WP4      -0.124300
      9 C09        -29.1850    -8.8070   -19.2760 ca         1 WP4      -0.104000
     10 C11        -27.1840    -7.5100   -19.7680 ca         1 WP4      -0.108000
     11 C12        -27.3350    -7.7990   -21.1340 ca         1 WP4      -0.109500
     12 N02        -31.5900    -9.1250   -21.6950 n7         1 WP4      -0.850400
     13 N06        -34.2440    -6.8910   -20.3990 n7         1 WP4      -0.827400
     14 H1         -27.9930    -7.7920   -17.7800 ha         1 WP4       0.113000
     15 H2         -28.5190    -8.8110   -22.6320 ha         1 WP4       0.109500
     16 H3         -30.8840   -10.5660   -20.2860 h1         1 WP4       0.058700
     17 H4         -30.1370   -10.6630   -21.8790 h1         1 WP4       0.058700
     18 H5         -31.5950    -7.5050   -20.2550 h1         1 WP4       0.027700
     19 H7         -32.5900    -9.3890   -18.9190 hc         1 WP4       0.053700
     20 H8         -33.9510    -7.4880   -18.3690 h1         1 WP4       0.050200
     21 H9         -35.2050    -8.4070   -19.2160 h1         1 WP4       0.050200
     22 H10        -33.0290    -6.6430   -22.1620 h1         1 WP4       0.060700
     23 H11        -34.0090    -8.1270   -22.1270 h1         1 WP4       0.060700
     24 H12        -29.8980    -9.1920   -18.5490 ha         1 WP4       0.109500
     25 H13        -26.3510    -6.8980   -19.4290 ha         1 WP4       0.113000
     26 H14        -26.6180    -7.4100   -21.8550 ha         1 WP4       0.113000
     27 H15        -31.1690    -8.5760   -22.4540 hn         1 WP4       0.413000
     28 H17        -33.7630    -6.0610   -20.0300 hn         1 WP4       0.396000
     29 H6         -33.6470    -9.8520   -20.2570 hc         1 WP4       0.053700
@<TRIPOS>BOND
     1     1     9 ar  
     2     1    10 ar  
     3     1    14 1   
     4     2     8 ar  
     5     2    11 ar  
     6     2    15 1   
     7     3     8 1   
     8     3    12 1   
     9     3    16 1   
    10     3    17 1   
    11     4     5 1   
    12     4     7 1   
    13     4    12 1   
    14     4    18 1   
    15     5     6 1   
    16     5    19 1   
    17     5    29 1   
    18     6    13 1   
    19     6    20 1   
    20     6    21 1   
    21     7    13 1   
    22     7    22 1   
    23     7    23 1   
    24     8     9 ar  
    25     9    24 1   
    26    10    11 ar  
    27    10    25 1   
    28    11    26 1   
    29    12    27 1   
    30    13    28 1   
@<TRIPOS>SUBSTRUCTURE
     1 WP4         1 TEMP              0 ****  ****    0 ROOT
