@<TRIPOS>MOLECULE
WP5
   40    42     1     0     0
SMALL
abcg2


@<TRIPOS>ATOM
      1 CAP          5.5450     1.0590     1.1050 c3         1 WP5       0.150900
      2 OAO          4.4940     0.1740     1.4990 os         1 WP5      -0.443100
      3 C            3.7820    -0.3850     0.5370 c          1 WP5       0.564100
      4 O            3.9790    -0.2270    -0.6380 o          1 WP5      -0.468000
      5 CA           2.7130    -1.3020     1.1120 c3         1 WP5       0.161800
      6 N            1.5360    -1.3960     0.2890 nh         1 WP5      -0.765600
      7 CAU          1.4240    -2.2750    -0.7380 c2         1 WP5       0.685200
      8 CAW          2.5530    -3.2260    -0.9890 c3         1 WP5      -0.145400
      9 NAT          0.3750    -2.3940    -1.4840 ne         1 WP5      -0.664100
     10 CAS         -0.7350    -1.6280    -1.1790 ca         1 WP5       0.186400
     11 CAR         -1.9290    -1.8740    -1.8630 ca         1 WP5      -0.101000
     12 CAQ         -3.0810    -1.1670    -1.5710 ca         1 WP5      -0.070000
     13 CAH         -3.0450    -0.1980    -0.5760 ca         1 WP5      -0.038900
     14 BRA         -4.6120     0.7710    -0.1580 br         1 WP5      -0.103100
     15 CAI         -1.8720     0.0710     0.1110 ca         1 WP5      -0.053000
     16 CAJ         -0.7210    -0.6380    -0.1980 ca         1 WP5      -0.150300
     17 CAK          0.5720    -0.3120     0.4940 c6         1 WP5       0.339100
     18 CAE          1.1430     1.0230     0.0530 ca         1 WP5      -0.130300
     19 CAF          1.6510     1.9030     1.0000 ca         1 WP5      -0.083500
     20 CAC          2.2420     3.0990     0.6100 ca         1 WP5      -0.112500
     21 CAB          2.3210     3.4220    -0.7370 ca         1 WP5      -0.099000
     22 CAA          1.8020     2.5500    -1.6890 ca         1 WP5      -0.112500
     23 CAD          1.2160     1.3590    -1.2960 ca         1 WP5      -0.083500
     24 HAP1         5.9950     1.4170     2.0260 h1         1 WP5       0.051033
     25 HAP2         6.2970     0.5440     0.5080 h1         1 WP5       0.051033
     26 HAP3         5.1500     1.9040     0.5410 h1         1 WP5       0.051033
     27 HA1C         3.1640    -2.2850     1.2590 h1         1 WP5       0.080700
     28 HA2C         2.4190    -0.9620     2.1060 h1         1 WP5       0.080700
     29 HAK          0.3890    -0.2500     1.5730 h1         1 WP5       0.060700
     30 HAW1         2.6710    -3.9220    -0.1550 hc         1 WP5       0.065367
     31 HAW2         2.3290    -3.8070    -1.8790 hc         1 WP5       0.065367
     32 HAW3         3.5040    -2.7170    -1.1330 hc         1 WP5       0.065367
     33 HAR         -1.9450    -2.6390    -2.6290 ha         1 WP5       0.132000
     34 HAQ         -3.9940    -1.3750    -2.1140 ha         1 WP5       0.129000
     35 HAI         -1.8410     0.8350     0.8800 ha         1 WP5       0.128000
     36 HAF          1.5880     1.6510     2.0530 ha         1 WP5       0.118000
     37 HAD          0.8170     0.6860    -2.0460 ha         1 WP5       0.118000
     38 HAC          2.6350     3.7770     1.3570 ha         1 WP5       0.114500
     39 HAB          2.7790     4.3520    -1.0470 ha         1 WP5       0.112000
     40 HAA          1.8570     2.8030    -2.7400 ha         1 WP5       0.114500
@<TRIPOS>BOND
     1     1     2 1   
     2     1    24 1   
     3     1    25 1   
     4     1    26 1   
     5     2     3 1   
     6     3     4 2   
     7     3     5 1   
     8     5     6 1   
     9     5    27 1   
    10     5    28 1   
    11     6     7 1   
    12     6    17 1   
    13     7     8 1   
    14     7     9 2   
    15     8    30 1   
    16     8    31 1   
    17     8    32 1   
    18     9    10 1   
    19    10    11 ar  
    20    10    16 ar  
    21    11    12 ar  
    22    11    33 1   
    23    12    13 ar  
    24    12    34 1   
    25    13    14 1   
    26    13    15 ar  
    27    15    16 ar  
    28    15    35 1   
    29    16    17 1   
    30    17    18 1   
    31    17    29 1   
    32    18    19 ar  
    33    18    23 ar  
    34    19    20 ar  
    35    19    36 1   
    36    20    21 ar  
    37    20    38 1   
    38    21    22 ar  
    39    21    39 1   
    40    22    23 ar  
    41    22    40 1   
    42    23    37 1   
@<TRIPOS>SUBSTRUCTURE
     1 WP5         1 TEMP              0 ****  ****    0 ROOT
