@<TRIPOS>MOLECULE
WP5
   40    42     1     0     0
SMALL
No Charge or Current Charge


@<TRIPOS>ATOM
      1 CAP          5.6370     1.2140     0.8760 c3         1 WP5       0.150900
      2 OAO          4.6090     0.3240     1.3490 os         1 WP5      -0.443100
      3 C            3.9790    -0.4810     0.4300 c          1 WP5       0.564100
      4 O            4.2570    -0.5010    -0.7640 o          1 WP5      -0.468000
      5 CA           2.8390    -1.3170     1.0840 c3         1 WP5       0.161800
      6 N            1.5610    -1.4670     0.3030 nh         1 WP5      -0.765600
      7 CAU          1.3910    -2.3980    -0.7210 c2         1 WP5       0.685200
      8 CAW          2.4860    -3.4060    -0.9910 c3         1 WP5      -0.145400
      9 NAT          0.2880    -2.5090    -1.3940 ne         1 WP5      -0.664100
     10 CAS         -0.8250    -1.6900    -1.1630 ca         1 WP5       0.186400
     11 CAR         -2.0190    -1.9140    -1.8710 ca         1 WP5      -0.101000
     12 CAQ         -3.1430    -1.1020    -1.6380 ca         1 WP5      -0.070000
     13 CAH         -3.0690    -0.0640    -0.6950 ca         1 WP5      -0.038900
     14 BrA         -4.5920     1.0470    -0.3760 br         1 WP5      -0.103100
     15 CAI         -1.8770     0.1620     0.0130 ca         1 WP5      -0.053000
     16 CAJ         -0.7520    -0.6530    -0.2220 ca         1 WP5      -0.150300
     17 CAK          0.5520    -0.4020     0.5230 c6         1 WP5       0.339100
     18 CAE          1.1320     0.9720     0.1590 ca         1 WP5      -0.130300
     19 CAF          1.3990     1.9210     1.1670 ca         1 WP5      -0.083500
     20 CAC          1.9530     3.1700     0.8360 ca         1 WP5      -0.112500
     21 CAB          2.2430     3.4800    -0.5030 ca         1 WP5      -0.099000
     22 CAA          1.9770     2.5410    -1.5130 ca         1 WP5      -0.112500
     23 CAD          1.4240     1.2910    -1.1840 ca         1 WP5      -0.083500
     24 HAP1         6.0520     1.7950     1.7100 h1         1 WP5       0.051033
     25 HAP2         6.4580     0.6530     0.4100 h1         1 WP5       0.051033
     26 HAP3         5.2340     1.9200     0.1380 h1         1 WP5       0.051033
     27 HA1C         3.2590    -2.2920     1.3580 h1         1 WP5       0.080700
     28 HA2C         2.6170    -0.8170     2.0360 h1         1 WP5       0.080700
     29 HAK          0.3030    -0.3850     1.5950 h1         1 WP5       0.060700
     30 HAW1         2.7010    -4.0020    -0.0980 hc         1 WP5       0.065367
     31 HAW2         2.1960    -4.1050    -1.7840 hc         1 WP5       0.065367
     32 HAW3         3.4090    -2.9180    -1.3160 hc         1 WP5       0.065367
     33 HAR         -2.0730    -2.7190    -2.5990 ha         1 WP5       0.132000
     34 HAQ         -4.0650    -1.2780    -2.1870 ha         1 WP5       0.129000
     35 HAI         -1.8240     0.9720     0.7380 ha         1 WP5       0.128000
     36 HAF          1.1850     1.6910     2.2090 ha         1 WP5       0.118000
     37 HAD          1.2290     0.5660    -1.9710 ha         1 WP5       0.118000
     38 HAC          2.1600     3.8970     1.6190 ha         1 WP5       0.114500
     39 HAB          2.6720     4.4470    -0.7580 ha         1 WP5       0.112000
     40 HAA          2.2020     2.7780    -2.5500 ha         1 WP5       0.114500
@<TRIPOS>BOND
     1     1     2 1   
     2     1    24 1   
     3     1    25 1   
     4     1    26 1   
     5     2     3 1   
     6     3     4 2   
     7     3     5 1   
     8     5     6 1   
     9     5    27 1   
    10     5    28 1   
    11     6     7 1   
    12     6    17 1   
    13     7     8 1   
    14     7     9 2   
    15     8    30 1   
    16     8    31 1   
    17     8    32 1   
    18     9    10 1   
    19    10    11 ar  
    20    10    16 ar  
    21    11    12 ar  
    22    11    33 1   
    23    12    13 ar  
    24    12    34 1   
    25    13    14 1   
    26    13    15 ar  
    27    15    16 ar  
    28    15    35 1   
    29    16    17 1   
    30    17    18 1   
    31    17    29 1   
    32    18    19 ar  
    33    18    23 ar  
    34    19    20 ar  
    35    19    36 1   
    36    20    21 ar  
    37    20    38 1   
    38    21    22 ar  
    39    21    39 1   
    40    22    23 ar  
    41    22    40 1   
    42    23    37 1   
@<TRIPOS>SUBSTRUCTURE
     1 WP5         1 TEMP              0 ****  ****    0 ROOT
