@<TRIPOS>MOLECULE
WP6
   44    47     1     0     0
SMALL
abcg2


@<TRIPOS>ATOM
      1 CAD         -1.2250    -1.2460    -2.0510 ca         1 WP6      -0.094500
      2 CAA         -2.1340    -2.0980    -2.6670 ca         1 WP6      -0.112500
      3 CAB         -2.8810    -2.9850    -1.9050 ca         1 WP6      -0.104000
      4 CAC         -2.7160    -3.0150    -0.5240 ca         1 WP6      -0.112500
      5 CAF         -1.8130    -2.1600     0.0890 ca         1 WP6      -0.094500
      6 CAE         -1.0610    -1.2670    -0.6720 ca         1 WP6      -0.114300
      7 CAM         -0.0860    -0.3140    -0.0050 c6         1 WP6       0.335100
      8 CAL         -0.8070     0.7210     0.8140 ca         1 WP6      -0.139300
      9 CAK         -1.5350     1.7230     0.1920 ca         1 WP6      -0.072000
     10 CAJ         -2.2400     2.6320     0.9610 ca         1 WP6       0.100000
     11 CL          -3.1510     3.8860     0.1820 cl         1 WP6      -0.210000
     12 CAR         -2.2280     2.5530     2.3480 ca         1 WP6      -0.089000
     13 CAS         -1.4900     1.5560     2.9580 ca         1 WP6      -0.094000
     14 CAT         -0.7640     0.6290     2.2050 ca         1 WP6       0.175400
     15 NAU         -0.0130    -0.3250     2.8670 ne         1 WP6      -0.670100
     16 CAV          0.7860    -1.0660     2.1690 c2         1 WP6       0.671200
     17 CAW          1.6710    -2.0120     2.9240 c3         1 WP6      -0.141400
     18 NAN          0.8810    -1.0290     0.8180 nh         1 WP6      -0.777600
     19 CAO          1.8410    -1.8020     0.0520 c3         1 WP6       0.268100
     20 CAP          2.7930    -0.9190    -0.7180 ca         1 WP6      -0.114300
     21 CAX          3.5350     0.0590    -0.0610 ca         1 WP6      -0.096500
     22 CAY          4.4220     0.8600    -0.7640 ca         1 WP6      -0.111000
     23 CAQ          4.5760     0.6940    -2.1370 ca         1 WP6      -0.103000
     24 CAH          3.8350    -0.2740    -2.7990 ca         1 WP6      -0.111000
     25 CAG          2.9450    -1.0730    -2.0910 ca         1 WP6      -0.096500
     26 HAD         -0.6370    -0.5620    -2.6520 ha         1 WP6       0.117000
     27 HAA         -2.2540    -2.0720    -3.7430 ha         1 WP6       0.113500
     28 HAB         -3.5860    -3.6520    -2.3830 ha         1 WP6       0.113000
     29 HAC         -3.2940    -3.7050     0.0760 ha         1 WP6       0.113500
     30 HAF         -1.7000    -2.1910     1.1670 ha         1 WP6       0.117000
     31 HAM          0.4700     0.1980    -0.7980 h1         1 WP6       0.070700
     32 HAK         -1.5580     1.7880    -0.8900 ha         1 WP6       0.127000
     33 HAR         -2.7830     3.2650     2.9440 ha         1 WP6       0.128000
     34 HAS         -1.4620     1.4890     4.0390 ha         1 WP6       0.131000
     35 HAW1         1.4420    -1.9300     3.9820 hc         1 WP6       0.061367
     36 HAW2         1.5220    -3.0470     2.6130 hc         1 WP6       0.061367
     37 HAW3         2.7270    -1.7760     2.7870 hc         1 WP6       0.061367
     38 HAO1         2.4010    -2.4550     0.7170 h1         1 WP6       0.059200
     39 HAO2         1.3080    -2.4600    -0.6420 h1         1 WP6       0.059200
     40 HAX          3.4200     0.2000     1.0080 ha         1 WP6       0.115000
     41 HAG          2.3610    -1.8220    -2.6130 ha         1 WP6       0.115000
     42 HAY          4.9940     1.6160    -0.2420 ha         1 WP6       0.115000
     43 HAQ          5.2680     1.3190    -2.6860 ha         1 WP6       0.115000
     44 HAH          3.9420    -0.4040    -3.8680 ha         1 WP6       0.115000
@<TRIPOS>BOND
     1     1     2 ar  
     2     1     6 ar  
     3     1    26 1   
     4     2     3 ar  
     5     2    27 1   
     6     3     4 ar  
     7     3    28 1   
     8     4     5 ar  
     9     4    29 1   
    10     5     6 ar  
    11     5    30 1   
    12     6     7 1   
    13     7     8 1   
    14     7    18 1   
    15     7    31 1   
    16     8     9 ar  
    17     8    14 ar  
    18     9    10 ar  
    19     9    32 1   
    20    10    11 1   
    21    10    12 ar  
    22    12    13 ar  
    23    12    33 1   
    24    13    14 ar  
    25    13    34 1   
    26    14    15 1   
    27    15    16 2   
    28    16    17 1   
    29    16    18 1   
    30    17    35 1   
    31    17    36 1   
    32    17    37 1   
    33    18    19 1   
    34    19    20 1   
    35    19    38 1   
    36    19    39 1   
    37    20    21 ar  
    38    20    25 ar  
    39    21    22 ar  
    40    21    40 1   
    41    22    23 ar  
    42    22    42 1   
    43    23    24 ar  
    44    23    43 1   
    45    24    25 ar  
    46    24    44 1   
    47    25    41 1   
@<TRIPOS>SUBSTRUCTURE
     1 WP6         1 TEMP              0 ****  ****    0 ROOT
