@<TRIPOS>MOLECULE
WP6
   44    47     1     0     0
SMALL
No Charge or Current Charge


@<TRIPOS>ATOM
      1 CAD         -1.2180    -1.4260    -2.0900 ca         1 WP6      -0.094500
      2 CAA         -2.1330    -2.3080    -2.6900 ca         1 WP6      -0.112500
      3 CAB         -2.9920    -3.0830    -1.8930 ca         1 WP6      -0.104000
      4 CAC         -2.9360    -2.9750    -0.4930 ca         1 WP6      -0.112500
      5 CAF         -2.0210    -2.0940     0.1090 ca         1 WP6      -0.094500
      6 CAE         -1.1560    -1.3130    -0.6850 ca         1 WP6      -0.114300
      7 CAM         -0.1560    -0.3500    -0.0310 c6         1 WP6       0.335100
      8 CAL         -0.8810     0.7050     0.7950 ca         1 WP6      -0.139300
      9 CAK         -1.7270     1.6450     0.1710 ca         1 WP6      -0.072000
     10 CAJ         -2.4050     2.6020     0.9440 ca         1 WP6       0.100000
     11 Cl          -3.4610     3.7720     0.1630 cl         1 WP6      -0.210000
     12 CAR         -2.2440     2.6240     2.3380 ca         1 WP6      -0.089000
     13 CAS         -1.4000     1.6860     2.9590 ca         1 WP6      -0.094000
     14 CAT         -0.7180     0.7280     2.1880 ca         1 WP6       0.175400
     15 NAU          0.1280    -0.2000     2.8100 ne         1 WP6      -0.670100
     16 CAV          0.8540    -1.0440     2.1430 c2         1 WP6       0.671200
     17 CAW          1.7710    -1.9580     2.9260 c3         1 WP6      -0.141400
     18 NAN          0.8540    -1.1000     0.7510 nh         1 WP6      -0.777600
     19 CAO          1.8570    -1.8390    -0.0510 c3         1 WP6       0.268100
     20 CAP          2.8720    -0.9250    -0.7320 ca         1 WP6      -0.114300
     21 CAX          3.7700    -0.1530     0.0330 ca         1 WP6      -0.096500
     22 CAY          4.6980     0.6930    -0.5990 ca         1 WP6      -0.111000
     23 CAQ          4.7340     0.7760    -2.0010 ca         1 WP6      -0.103000
     24 CAH          3.8410     0.0120    -2.7700 ca         1 WP6      -0.111000
     25 CAG          2.9130    -0.8350    -2.1390 ca         1 WP6      -0.096500
     26 HAD         -0.5570    -0.8320    -2.7180 ha         1 WP6       0.117000
     27 HAA         -2.1760    -2.3910    -3.7740 ha         1 WP6       0.113500
     28 HAB         -3.7000    -3.7650    -2.3580 ha         1 WP6       0.113000
     29 HAC         -3.6000    -3.5750     0.1260 ha         1 WP6       0.113500
     30 HAF         -1.9820    -2.0180     1.1930 ha         1 WP6       0.117000
     31 HAM          0.3610     0.1900    -0.8390 h1         1 WP6       0.070700
     32 HAK         -1.8620     1.6310    -0.9080 ha         1 WP6       0.127000
     33 HAR         -2.7700     3.3650     2.9360 ha         1 WP6       0.128000
     34 HAS         -1.2720     1.7020     4.0380 ha         1 WP6       0.131000
     35 HAW1         1.6190    -1.8490     4.0060 hc         1 WP6       0.061367
     36 HAW2         1.5820    -3.0070     2.6770 hc         1 WP6       0.061367
     37 HAW3         2.8230    -1.7350     2.7220 hc         1 WP6       0.061367
     38 HAO1         2.3960    -2.5850     0.5460 h1         1 WP6       0.059200
     39 HAO2         1.3370    -2.4130    -0.8290 h1         1 WP6       0.059200
     40 HAX          3.7470    -0.2040     1.1190 ha         1 WP6       0.115000
     41 HAG          2.2250    -1.4200    -2.7460 ha         1 WP6       0.115000
     42 HAY          5.3870     1.2860    -0.0010 ha         1 WP6       0.115000
     43 HAQ          5.4510     1.4310    -2.4890 ha         1 WP6       0.115000
     44 HAH          3.8670     0.0760    -3.8560 ha         1 WP6       0.115000
@<TRIPOS>BOND
     1     1     2 ar  
     2     1     6 ar  
     3     1    26 1   
     4     2     3 ar  
     5     2    27 1   
     6     3     4 ar  
     7     3    28 1   
     8     4     5 ar  
     9     4    29 1   
    10     5     6 ar  
    11     5    30 1   
    12     6     7 1   
    13     7     8 1   
    14     7    18 1   
    15     7    31 1   
    16     8     9 ar  
    17     8    14 ar  
    18     9    10 ar  
    19     9    32 1   
    20    10    11 1   
    21    10    12 ar  
    22    12    13 ar  
    23    12    33 1   
    24    13    14 ar  
    25    13    34 1   
    26    14    15 1   
    27    15    16 2   
    28    16    17 1   
    29    16    18 1   
    30    17    35 1   
    31    17    36 1   
    32    17    37 1   
    33    18    19 1   
    34    19    20 1   
    35    19    38 1   
    36    19    39 1   
    37    20    21 ar  
    38    20    25 ar  
    39    21    22 ar  
    40    21    40 1   
    41    22    23 ar  
    42    22    42 1   
    43    23    24 ar  
    44    23    43 1   
    45    24    25 ar  
    46    24    44 1   
    47    25    41 1   
@<TRIPOS>SUBSTRUCTURE
     1 WP6         1 TEMP              0 ****  ****    0 ROOT
