@<TRIPOS>MOLECULE
WP7
   60    64     1     0     0
SMALL
bcc


@<TRIPOS>ATOM
      1 CAD          2.6940    -1.5560     2.0760 ca         1 WP7      -0.111500
      2 CAA          3.2230    -2.6360     2.7730 ca         1 WP7      -0.129500
      3 CAB          4.0800    -3.5190     2.1340 ca         1 WP7      -0.120000
      4 CAC          4.4060    -3.3180     0.7970 ca         1 WP7      -0.129500
      5 CAF          3.8810    -2.2370     0.1050 ca         1 WP7      -0.111500
      6 CAE          3.0200    -1.3460     0.7430 ca         1 WP7      -0.116300
      7 CAN          2.4600    -0.1450     0.0030 c6         1 WP7       0.340100
      8 CAM          3.5430     0.8540    -0.3050 ca         1 WP7      -0.144300
      9 CAL          4.1060     1.6110     0.7110 ca         1 WP7      -0.091000
     10 CAK          5.1480     2.4740     0.4210 ca         1 WP7       0.008400
     11 CLA          5.8570     3.4160     1.6950 cl         1 WP7      -0.117400
     12 CAX          5.6370     2.5930    -0.8730 ca         1 WP7      -0.106000
     13 CAY          5.0590     1.8430    -1.8810 ca         1 WP7      -0.112000
     14 CAZ          4.0000     0.9700    -1.6180 ca         1 WP7       0.176400
     15 NBA          3.4290     0.2780    -2.6710 ne         1 WP7      -0.670100
     16 CBB          2.3460    -0.3920    -2.4410 c2         1 WP7       0.672200
     17 CBC          1.6810    -1.0400    -3.6170 c3         1 WP7      -0.141400
     18 NAO          1.7780    -0.5430    -1.2230 nh         1 WP7      -0.782600
     19 CAP          0.4850    -1.1750    -1.0240 c3         1 WP7       0.220800
     20 CAQ         -0.6350    -0.1380    -0.9790 c3         1 WP7       0.143800
     21 NAR         -1.9420    -0.7460    -0.8270 n3         1 WP7      -0.717600
     22 CAG         -2.9960     0.2040    -1.1310 c6         1 WP7       0.136300
     23 CAH         -4.3700    -0.4450    -1.0730 c6         1 WP7       0.097500
     24 CBD         -2.1500    -1.3100     0.4960 c6         1 WP7       0.136300
     25 CBE         -3.5080    -1.9840     0.5720 c6         1 WP7       0.097500
     26 NAS         -4.5760    -1.0620     0.2280 n          1 WP7      -0.464800
     27 CAT         -5.4240    -0.6260     1.1840 c          1 WP7       0.609600
     28 OAI         -5.2770    -0.8720     2.3760 o          1 WP7      -0.588100
     29 CAU         -6.6170     0.1490     0.7860 cc         1 WP7       0.166200
     30 CBF         -7.3300     1.0460     1.5160 cd         1 WP7      -0.196300
     31 CBG         -8.4330     1.4330     0.7060 cd         1 WP7      -0.281300
     32 CAW         -8.3150     0.7270    -0.4450 cc         1 WP7       0.248600
     33 OAV         -7.2210    -0.0520    -0.4070 os         1 WP7      -0.318800
     34 HAD          2.0190    -0.8720     2.5780 ha         1 WP7       0.133500
     35 HAA          2.9590    -2.7890     3.8110 ha         1 WP7       0.133000
     36 HAB          4.4930    -4.3630     2.6720 ha         1 WP7       0.132000
     37 HAC          5.0740    -4.0050     0.2920 ha         1 WP7       0.133000
     38 HAF          4.1510    -2.0900    -0.9330 ha         1 WP7       0.133500
     39 HAN          1.7230     0.3320     0.6590 h1         1 WP7       0.059700
     40 HAL          3.7420     1.5160     1.7270 ha         1 WP7       0.144000
     41 HAX          6.4570     3.2630    -1.0920 ha         1 WP7       0.147000
     42 HAY          5.4220     1.9340    -2.8970 ha         1 WP7       0.150000
     43 HBC1         2.2510    -0.8090    -4.5120 hc         1 WP7       0.062033
     44 HBC2         1.6340    -2.1240    -3.5050 hc         1 WP7       0.062033
     45 HBC3         0.6610    -0.6820    -3.7610 hc         1 WP7       0.062033
     46 HAP1         0.2850    -1.8990    -1.8110 h1         1 WP7       0.061700
     47 HAP2         0.5370    -1.7490    -0.0980 h1         1 WP7       0.061700
     48 HAQ1        -0.4330     0.6010    -0.1850 h1         1 WP7       0.040700
     49 HAQ2        -0.6270     0.4150    -1.9220 h1         1 WP7       0.040700
     50 HAG1        -2.9830     1.0650    -0.4410 h1         1 WP7       0.043450
     51 HAG2        -2.8450     0.5960    -2.1390 h1         1 WP7       0.043450
     52 HBD1        -1.3920    -2.0660     0.7040 h1         1 WP7       0.043450
     53 HBD2        -2.0700    -0.5420     1.2840 h1         1 WP7       0.043450
     54 HAH1        -5.1150     0.3170    -1.2740 h1         1 WP7       0.067950
     55 HAH2        -4.4560    -1.2100    -1.8500 h1         1 WP7       0.067950
     56 HBE1        -3.5370    -2.8150    -0.1410 h1         1 WP7       0.067950
     57 HBE2        -3.6730    -2.3890     1.5660 h1         1 WP7       0.067950
     58 HBF         -7.0940     1.3950     2.5080 ha         1 WP7       0.174000
     59 HBG         -9.2140     2.1340     0.9500 ha         1 WP7       0.165000
     60 HAW         -8.9130     0.6770    -1.3410 h4         1 WP7       0.055100
@<TRIPOS>BOND
     1     1     2 ar  
     2     1     6 ar  
     3     1    34 1   
     4     2     3 ar  
     5     2    35 1   
     6     3     4 ar  
     7     3    36 1   
     8     4     5 ar  
     9     4    37 1   
    10     5     6 ar  
    11     5    38 1   
    12     6     7 1   
    13     7     8 1   
    14     7    18 1   
    15     7    39 1   
    16     8     9 ar  
    17     8    14 ar  
    18     9    10 ar  
    19     9    40 1   
    20    10    11 1   
    21    10    12 ar  
    22    12    13 ar  
    23    12    41 1   
    24    13    14 ar  
    25    13    42 1   
    26    14    15 1   
    27    15    16 2   
    28    16    17 1   
    29    16    18 1   
    30    17    43 1   
    31    17    44 1   
    32    17    45 1   
    33    18    19 1   
    34    19    20 1   
    35    19    46 1   
    36    19    47 1   
    37    20    21 1   
    38    20    48 1   
    39    20    49 1   
    40    21    22 1   
    41    21    24 1   
    42    22    23 1   
    43    22    50 1   
    44    22    51 1   
    45    23    26 1   
    46    23    54 1   
    47    23    55 1   
    48    24    25 1   
    49    24    52 1   
    50    24    53 1   
    51    25    26 1   
    52    25    56 1   
    53    25    57 1   
    54    26    27 1   
    55    27    28 2   
    56    27    29 1   
    57    29    30 2   
    58    29    33 1   
    59    30    31 1   
    60    30    58 1   
    61    31    32 2   
    62    31    59 1   
    63    32    33 1   
    64    32    60 1   
@<TRIPOS>SUBSTRUCTURE
     1 WP7         1 TEMP              0 ****  ****    0 ROOT
