@<TRIPOS>MOLECULE
WP7
   60    64     1     0     0
SMALL
No Charge or Current Charge


@<TRIPOS>ATOM
      1 CAD          3.0180    -1.6250     2.0790 ca         1 WP7      -0.093500
      2 CAA          3.4830    -2.7790     2.7340 ca         1 WP7      -0.111500
      3 CAB          4.2580    -3.7210     2.0370 ca         1 WP7      -0.102000
      4 CAC          4.5680    -3.5090     0.6830 ca         1 WP7      -0.111500
      5 CAF          4.1030    -2.3560     0.0270 ca         1 WP7      -0.093500
      6 CAE          3.3240    -1.4060     0.7200 ca         1 WP7      -0.116300
      7 CAN          2.8170    -0.1450     0.0070 c6         1 WP7       0.340100
      8 CAM          3.9790     0.6950    -0.5090 ca         1 WP7      -0.144300
      9 CAL          4.8580     1.3310     0.3910 ca         1 WP7      -0.073000
     10 CAK          5.9390     2.0840    -0.0960 ca         1 WP7       0.100000
     11 ClA          7.0360     2.8750     1.0290 cl         1 WP7      -0.209000
     12 CAX          6.1470     2.2040    -1.4800 ca         1 WP7      -0.088000
     13 CAY          5.2700     1.5680    -2.3760 ca         1 WP7      -0.094000
     14 CAZ          4.1860     0.8150    -1.8910 ca         1 WP7       0.176400
     15 NBA          3.3100     0.1880    -2.7880 ne         1 WP7      -0.670100
     16 CBB          2.2350    -0.4270    -2.4000 c2         1 WP7       0.672200
     17 CBC          1.3270    -1.0140    -3.4580 c3         1 WP7      -0.141400
     18 NAO          1.8580    -0.5030    -1.0620 nh         1 WP7      -0.782600
     19 CAP          0.5060    -0.9250    -0.6080 c3         1 WP7       0.220800
     20 CAQ         -0.5730     0.1910    -0.6990 c3         1 WP7       0.143800
     21 NAR         -1.9650    -0.2330    -0.3770 n3         1 WP7      -0.717600
     22 CAG         -2.9480     0.8390    -0.6640 c6         1 WP7       0.136300
     23 CAH         -4.4210     0.3860    -0.4740 c6         1 WP7       0.097500
     24 CBD         -2.1460    -0.6610     1.0330 c6         1 WP7       0.136300
     25 CBE         -3.5670    -1.2220     1.3020 c6         1 WP7       0.097500
     26 NAS         -4.7210    -0.4460     0.7380 n          1 WP7      -0.397800
     27 CAT         -6.0420    -0.7950     1.1500 c          1 WP7       0.542600
     28 OAI         -6.1920    -1.5320     2.1200 o          1 WP7      -0.588100
     29 CAU         -7.2340    -0.2680     0.3960 cc         1 WP7       0.056500
     30 CBF         -8.5380    -0.5310     0.7350 cd         1 WP7      -0.113000
     31 CBG         -9.3570     0.1130    -0.2140 cd         1 WP7      -0.198000
     32 CAW         -8.5290     0.7410    -1.1030 cc         1 WP7       0.138900
     33 OAV         -7.2190     0.5150    -0.7440 os         1 WP7      -0.230000
     34 HAD          2.4190    -0.9030     2.6300 ha         1 WP7       0.115500
     35 HAA          3.2430    -2.9430     3.7820 ha         1 WP7       0.115000
     36 HAB          4.6170    -4.6140     2.5440 ha         1 WP7       0.114000
     37 HAC          5.1670    -4.2370     0.1420 ha         1 WP7       0.115000
     38 HAF          4.3470    -2.2000    -1.0220 ha         1 WP7       0.115500
     39 HAN          2.2890     0.4700     0.7520 h1         1 WP7       0.059700
     40 HAL          4.7080     1.2370     1.4640 ha         1 WP7       0.126000
     41 HAX          6.9850     2.7870    -1.8560 ha         1 WP7       0.129000
     42 HAY          5.4280     1.6600    -3.4480 ha         1 WP7       0.132000
     43 HBC1         1.7850    -0.9590    -4.4520 hc         1 WP7       0.062033
     44 HBC2         1.1210    -2.0700    -3.2550 hc         1 WP7       0.062033
     45 HBC3         0.3740    -0.4770    -3.5090 hc         1 WP7       0.062033
     46 HAP1         0.1660    -1.8010    -1.1750 h1         1 WP7       0.061700
     47 HAP2         0.5620    -1.2460     0.4390 h1         1 WP7       0.061700
     48 HAQ1        -0.2710     1.0130    -0.0370 h1         1 WP7       0.040700
     49 HAQ2        -0.5510     0.5890    -1.7220 h1         1 WP7       0.040700
     50 HAG1        -2.7620     1.6990    -0.0020 h1         1 WP7       0.043450
     51 HAG2        -2.8300     1.2050    -1.6950 h1         1 WP7       0.043450
     52 HBD1        -1.4220    -1.4410     1.3060 h1         1 WP7       0.043450
     53 HBD2        -1.9700     0.1880     1.7090 h1         1 WP7       0.043450
     54 HAH1        -5.0190     1.3060    -0.4420 h1         1 WP7       0.067950
     55 HAH2        -4.7240    -0.1820    -1.3650 h1         1 WP7       0.067950
     56 HBE1        -3.6130    -2.2370     0.8830 h1         1 WP7       0.067950
     57 HBE2        -3.6880    -1.3240     2.3890 h1         1 WP7       0.067950
     58 HBF         -8.8710    -1.1260     1.5800 ha         1 WP7       0.156000
     59 HBG        -10.4410     0.1130    -0.2440 ha         1 WP7       0.147000
     60 HAW         -8.7220     1.3440    -1.9800 h4         1 WP7       0.055100
@<TRIPOS>BOND
     1     1     2 ar  
     2     1     6 ar  
     3     1    34 1   
     4     2     3 ar  
     5     2    35 1   
     6     3     4 ar  
     7     3    36 1   
     8     4     5 ar  
     9     4    37 1   
    10     5     6 ar  
    11     5    38 1   
    12     6     7 1   
    13     7     8 1   
    14     7    18 1   
    15     7    39 1   
    16     8     9 ar  
    17     8    14 ar  
    18     9    10 ar  
    19     9    40 1   
    20    10    11 1   
    21    10    12 ar  
    22    12    13 ar  
    23    12    41 1   
    24    13    14 ar  
    25    13    42 1   
    26    14    15 1   
    27    15    16 2   
    28    16    17 1   
    29    16    18 1   
    30    17    43 1   
    31    17    44 1   
    32    17    45 1   
    33    18    19 1   
    34    19    20 1   
    35    19    46 1   
    36    19    47 1   
    37    20    21 1   
    38    20    48 1   
    39    20    49 1   
    40    21    22 1   
    41    21    24 1   
    42    22    23 1   
    43    22    50 1   
    44    22    51 1   
    45    23    26 1   
    46    23    54 1   
    47    23    55 1   
    48    24    25 1   
    49    24    52 1   
    50    24    53 1   
    51    25    26 1   
    52    25    56 1   
    53    25    57 1   
    54    26    27 1   
    55    27    28 2   
    56    27    29 1   
    57    29    30 2   
    58    29    33 1   
    59    30    31 1   
    60    30    58 1   
    61    31    32 2   
    62    31    59 1   
    63    32    33 1   
    64    32    60 1   
@<TRIPOS>SUBSTRUCTURE
     1 WP7         1 TEMP              0 ****  ****    0 ROOT
