@<TRIPOS>MOLECULE
WP8
   33    34     1     0     0
SMALL
abcg2


@<TRIPOS>ATOM
      1 C13          4.9050     7.0960    21.6070 ca         1 WP8      -0.084300
      2 C15          0.9400     3.8740    18.9090 cc         1 WP8       0.260900
      3 C17         -0.2590     6.6350    17.0890 c3         1 WP8       0.072900
      4 C18          7.2440     7.1700    17.9250 c3         1 WP8      -0.084800
      5 C19          4.1020     7.0670    22.8730 c3         1 WP8      -0.046800
      6 S1           4.1500     6.9490    17.6240 sy         1 WP8       1.218600
      7 N2           2.5460     6.9380    17.9740 nu         1 WP8      -0.938100
      8 C3           1.8010     5.7950    18.2760 cd         1 WP8       0.224000
      9 C4           5.0090     7.0500    19.1790 ca         1 WP8      -0.288500
     10 N5           0.5290     5.6620    17.8210 na         1 WP8       0.111800
     11 C6           2.1100     4.6490    18.9850 cc         1 WP8      -0.238000
     12 N7          -0.0190     4.4950    18.2260 nd         1 WP8      -0.515800
     13 C8           4.2820     7.0390    20.3620 ca         1 WP8      -0.027000
     14 C9           6.4110     7.1340    19.1760 ca         1 WP8       0.035700
     15 O10          4.4680     5.6890    17.0030 o          1 WP8      -0.530000
     16 O11          4.3860     8.1730    16.8990 o          1 WP8      -0.530000
     17 C12          6.2970     7.1750    21.5950 ca         1 WP8       0.172000
     18 C14          7.0330     7.1970    20.4180 ca         1 WP8      -0.120000
     19 CL16         7.1690     7.2500    23.1090 cl         1 WP8      -0.199000
     20 H24          0.7590     2.8960    19.3270 h4         1 WP8       0.042100
     21 H26         -0.9960     6.0980    16.4980 h1         1 WP8       0.059367
     22 H27         -0.7650     7.3190    17.7720 h1         1 WP8       0.059367
     23 H25          0.3960     7.2010    16.4290 h1         1 WP8       0.059367
     24 H28          7.0270     8.0630    17.3380 hc         1 WP8       0.068367
     25 H29          8.3020     7.1740    18.1810 hc         1 WP8       0.068367
     26 H30          7.0440     6.3060    17.2900 hc         1 WP8       0.068367
     27 H31          4.3700     6.2030    23.4850 hc         1 WP8       0.052700
     28 H33          4.2860     7.9580    23.4760 hc         1 WP8       0.052700
     29 H32          3.0380     7.0140    22.6460 hc         1 WP8       0.052700
     30 H20          2.1490     7.8510    18.1550 hn         1 WP8       0.511000
     31 H21          3.0410     4.4120    19.4670 ha         1 WP8       0.154000
     32 H22          3.2040     6.9820    20.3350 ha         1 WP8       0.122000
     33 H23          8.1110     7.2630    20.4680 ha         1 WP8       0.134000
@<TRIPOS>BOND
     1     1     5 1   
     2     1    13 ar  
     3     1    17 ar  
     4     2    11 1   
     5     2    12 2   
     6     2    20 1   
     7     3    10 1   
     8     3    21 1   
     9     3    22 1   
    10     3    23 1   
    11     4    14 1   
    12     4    24 1   
    13     4    25 1   
    14     4    26 1   
    15     5    27 1   
    16     5    28 1   
    17     5    29 1   
    18     6     7 1   
    19     6     9 1   
    20     6    15 2   
    21     6    16 2   
    22     7     8 1   
    23     7    30 1   
    24     8    10 1   
    25     8    11 2   
    26     9    13 ar  
    27     9    14 ar  
    28    10    12 1   
    29    11    31 1   
    30    13    32 1   
    31    14    18 ar  
    32    17    18 ar  
    33    17    19 1   
    34    18    33 1   
@<TRIPOS>SUBSTRUCTURE
     1 WP8         1 TEMP              0 ****  ****    0 ROOT
