@<TRIPOS>MOLECULE
WP8
   33    34     1     0     0
SMALL
No Charge or Current Charge


@<TRIPOS>ATOM
      1 C13          4.8240     7.3440    21.7010 ca         1 WP8      -0.084300
      2 C15          1.8520     3.7810    18.4490 cc         1 WP8       0.260900
      3 C17         -0.4320     6.2230    17.3420 c3         1 WP8       0.072900
      4 C18          7.0010     6.5000    18.0130 c3         1 WP8      -0.084800
      5 C19          4.0770     7.6450    22.9970 c3         1 WP8      -0.046800
      6 S1           3.9990     7.7670    17.7190 sy         1 WP8       1.218600
      7 N2           2.4160     7.2570    17.9620 nu         1 WP8      -0.938100
      8 C3           2.0170     5.9490    18.0760 cd         1 WP8       0.224000
      9 C4           4.8870     7.3610    19.2450 ca         1 WP8      -0.288500
     10 N5           0.7300     5.4520    17.8080 na         1 WP8       0.111800
     11 C6           2.7270     4.8740    18.4940 cc         1 WP8      -0.238000
     12 N7           0.6330     4.0800    18.0400 nd         1 WP8      -0.515800
     13 C8           4.2260     7.6380    20.4630 ca         1 WP8      -0.027000
     14 C9           6.1910     6.7950    19.2710 ca         1 WP8       0.035700
     15 O10          4.4620     6.9650    16.5850 o          1 WP8      -0.530000
     16 O11          3.8380     9.2180    17.6230 o          1 WP8      -0.530000
     17 C12          6.1090     6.7690    21.7180 ca         1 WP8       0.172000
     18 C14          6.7800     6.5030    20.5170 ca         1 WP8      -0.120000
     19 Cl16         6.9090     6.3760    23.2410 cl         1 WP8      -0.199000
     20 H24          2.0750     2.7550    18.7130 h4         1 WP8       0.042100
     21 H26         -1.3270     5.5880    17.3390 h1         1 WP8       0.059367
     22 H27         -0.5980     7.0750    18.0110 h1         1 WP8       0.059367
     23 H25         -0.2440     6.5870    16.3250 h1         1 WP8       0.059367
     24 H28          7.0320     7.3650    17.3400 hc         1 WP8       0.068367
     25 H29          8.0420     6.2490    18.2490 hc         1 WP8       0.068367
     26 H30          6.5840     5.6470    17.4640 hc         1 WP8       0.068367
     27 H31          3.9170     6.7320    23.5810 hc         1 WP8       0.052700
     28 H33          4.6390     8.3510    23.6200 hc         1 WP8       0.052700
     29 H32          3.0920     8.0880    22.8070 hc         1 WP8       0.052700
     30 H20          1.8480     7.8630    17.3870 hn         1 WP8       0.511000
     31 H21          3.7620     4.8350    18.8100 ha         1 WP8       0.154000
     32 H22          3.2310     8.0800    20.4460 ha         1 WP8       0.122000
     33 H23          7.7740     6.0660    20.5590 ha         1 WP8       0.134000
@<TRIPOS>BOND
     1     1     5 1   
     2     1    13 ar  
     3     1    17 ar  
     4     2    11 1   
     5     2    12 2   
     6     2    20 1   
     7     3    10 1   
     8     3    21 1   
     9     3    22 1   
    10     3    23 1   
    11     4    14 1   
    12     4    24 1   
    13     4    25 1   
    14     4    26 1   
    15     5    27 1   
    16     5    28 1   
    17     5    29 1   
    18     6     7 1   
    19     6     9 1   
    20     6    15 2   
    21     6    16 2   
    22     7     8 1   
    23     7    30 1   
    24     8    10 1   
    25     8    11 2   
    26     9    13 ar  
    27     9    14 ar  
    28    10    12 1   
    29    11    31 1   
    30    13    32 1   
    31    14    18 ar  
    32    17    18 ar  
    33    17    19 1   
    34    18    33 1   
@<TRIPOS>SUBSTRUCTURE
     1 WP8         1 TEMP              0 ****  ****    0 ROOT
