@<TRIPOS>MOLECULE
WPA
   26    26     1     0     0
SMALL
No Charge or Current Charge


@<TRIPOS>ATOM
      1 N          -21.9820    16.0910    -5.6410 n8         1 WPA      -0.897800
      2 CA         -20.7020    16.4940    -4.9130 c3         1 WPA       0.027500
      3 C          -19.8360    15.3610    -4.2150 c          1 WPA       0.934600
      4 CB         -20.9000    17.6610    -3.8970 c3         1 WPA       0.206400
      5 OB         -21.7630    17.2080    -2.8310 os         1 WPA      -0.361600
      6 CB1        -21.8200    18.0660    -1.6790 c3         1 WPA       0.124700
      7 CG         -21.4710    18.9320    -4.5490 ca         1 WPA      -0.086300
      8 CD1        -20.5950    19.9630    -4.9480 ca         1 WPA      -0.114500
      9 CE1        -21.0950    21.1330    -5.5450 ca         1 WPA      -0.147500
     10 CZ         -22.4760    21.2850    -5.7500 ca         1 WPA      -0.153000
     11 CE2        -23.3570    20.2650    -5.3570 ca         1 WPA      -0.147500
     12 CD2        -22.8580    19.0940    -4.7600 ca         1 WPA      -0.114500
     13 O          -20.3310    14.2550    -4.0080 o          1 WPA      -0.830800
     14 OXT        -18.6450    15.5840    -4.0110 o          1 WPA      -0.830800
     15 H1         -22.3670    16.9130    -6.1180 hn         1 WPA       0.337300
     16 H2         -21.7530    15.4320    -6.3920 hn         1 WPA       0.337300
     17 H4         -20.0520    16.8940    -5.7040 h1         1 WPA       0.013700
     18 H5         -19.9120    17.9080    -3.4840 h1         1 WPA       0.053700
     19 H6         -22.4720    17.6280    -0.9130 h1         1 WPA       0.011700
     20 H7         -20.8210    18.1970    -1.2440 h1         1 WPA       0.011700
     21 H8         -22.2190    19.0540    -1.9400 h1         1 WPA       0.011700
     22 H9         -19.5220    19.8570    -4.7960 ha         1 WPA       0.140500
     23 H10        -20.4110    21.9230    -5.8500 ha         1 WPA       0.112000
     24 H11        -22.8620    22.1910    -6.2110 ha         1 WPA       0.109000
     25 H12        -24.4280    20.3800    -5.5130 ha         1 WPA       0.112000
     26 H13        -23.5510    18.3110    -4.4570 ha         1 WPA       0.140500
@<TRIPOS>BOND
     1     1     2 1   
     2     1    15 1   
     3     1    16 1   
     4     2     3 1   
     5     2     4 1   
     6     2    17 1   
     7     3    13 1   
     8     3    14 1   
     9     4     5 1   
    10     4     7 1   
    11     4    18 1   
    12     5     6 1   
    13     6    19 1   
    14     6    20 1   
    15     6    21 1   
    16     7     8 ar  
    17     7    12 ar  
    18     8     9 ar  
    19     8    22 1   
    20     9    10 ar  
    21     9    23 1   
    22    10    11 ar  
    23    10    24 1   
    24    11    12 ar  
    25    11    25 1   
    26    12    26 1   
@<TRIPOS>SUBSTRUCTURE
     1 WPA         1 TEMP              0 ****  ****    0 ROOT
