@<TRIPOS>MOLECULE
WPA
   26    26     1     0     0
SMALL
bcc


@<TRIPOS>ATOM
      1 N          -21.8970    16.2750    -5.6250 n8         1 WPA      -0.897800
      2 CA         -20.6690    16.6410    -4.9460 c3         1 WPA       0.027500
      3 C          -19.9720    15.4120    -4.2900 c          1 WPA       0.934600
      4 CB         -20.9070    17.7300    -3.8920 c3         1 WPA       0.206400
      5 OB         -21.7350    17.1940    -2.8890 os         1 WPA      -0.361600
      6 CB1        -21.7600    17.9570    -1.7110 c3         1 WPA       0.124700
      7 CG         -21.4860    18.9780    -4.5160 ca         1 WPA      -0.086300
      8 CD1        -20.6320    19.9790    -4.9730 ca         1 WPA      -0.114500
      9 CE1        -21.1300    21.1120    -5.6010 ca         1 WPA      -0.147500
     10 CZ         -22.4990    21.2650    -5.7750 ca         1 WPA      -0.153000
     11 CE2        -23.3600    20.2760    -5.3160 ca         1 WPA      -0.147500
     12 CD2        -22.8580    19.1410    -4.6950 ca         1 WPA      -0.114500
     13 O          -20.4570    14.2900    -4.5330 o          1 WPA      -0.830800
     14 OXT        -18.9620    15.6610    -3.6060 o          1 WPA      -0.830800
     15 H1         -21.9460    16.7060    -6.5360 hn         1 WPA       0.337300
     16 H2         -21.8790    15.2720    -5.7600 hn         1 WPA       0.337300
     17 H4         -19.9290    17.0630    -5.6420 h1         1 WPA       0.013700
     18 H5         -19.9260    17.9900    -3.4690 h1         1 WPA       0.053700
     19 H6         -22.3820    17.4320    -0.9860 h1         1 WPA       0.011700
     20 H7         -20.7580    18.0790    -1.2800 h1         1 WPA       0.011700
     21 H8         -22.1830    18.9570    -1.8600 h1         1 WPA       0.011700
     22 H9         -19.5620    19.8720    -4.8310 ha         1 WPA       0.140500
     23 H10        -20.4490    21.8800    -5.9480 ha         1 WPA       0.112000
     24 H11        -22.8920    22.1500    -6.2590 ha         1 WPA       0.109000
     25 H12        -24.4300    20.3890    -5.4440 ha         1 WPA       0.112000
     26 H13        -23.5390    18.3790    -4.3430 ha         1 WPA       0.140500
@<TRIPOS>BOND
     1     1     2 1   
     2     1    15 1   
     3     1    16 1   
     4     2     3 1   
     5     2     4 1   
     6     2    17 1   
     7     3    13 1   
     8     3    14 1   
     9     4     5 1   
    10     4     7 1   
    11     4    18 1   
    12     5     6 1   
    13     6    19 1   
    14     6    20 1   
    15     6    21 1   
    16     7     8 ar  
    17     7    12 ar  
    18     8     9 ar  
    19     8    22 1   
    20     9    10 ar  
    21     9    23 1   
    22    10    11 ar  
    23    10    24 1   
    24    11    12 ar  
    25    11    25 1   
    26    12    26 1   
@<TRIPOS>SUBSTRUCTURE
     1 WPA         1 TEMP              0 ****  ****    0 ROOT
