@<TRIPOS>MOLECULE
WPB
   50    53     1     0     0
SMALL
abcg2


@<TRIPOS>ATOM
      1 C18         45.2050   -46.9850    15.1920 cc         1 WPB      -0.159100
      2 C13         38.0510   -50.1770    24.1550 ca         1 WPB      -0.133000
      3 C12         39.0960   -50.7990    23.4780 ca         1 WPB      -0.086000
      4 C11         40.2880   -50.1250    23.2420 ca         1 WPB      -0.110000
      5 C9          41.7380   -48.0640    23.4160 c3         1 WPB       0.134600
      6 C10         40.4520   -48.8150    23.6910 ca         1 WPB      -0.110300
      7 C19         41.8370   -48.0450    14.2770 ca         1 WPB       0.425900
      8 C1          43.6680   -47.6510    17.1080 ca         1 WPB      -0.049800
      9 C2          44.4080   -48.5170    17.9390 ca         1 WPB      -0.039300
     10 C3          44.0290   -48.6560    19.2700 ca         1 WPB      -0.167000
     11 O1          42.8990   -48.8510    23.6520 oh         1 WPB      -0.677000
     12 C4          42.9400   -47.9650    19.8090 ca         1 WPB      -0.019000
     13 C5          42.2000   -47.1160    18.9860 ca         1 WPB      -0.138000
     14 C6          45.5870   -49.3000    17.4270 c3         1 WPB      -0.047800
     15 C7          44.0050   -47.4350    15.6900 cd         1 WPB      -0.049400
     16 C8          41.7410   -47.5780    21.9570 c          1 WPB       0.610100
     17 C14         38.2400   -48.8770    24.5850 ca         1 WPB       0.166000
     18 C15         39.4160   -48.1810    24.3720 ca         1 WPB      -0.116000
     19 C16         43.1420   -47.5770    14.5460 ca         1 WPB      -0.245800
     20 C17         43.8840   -47.1910    13.4110 ca         1 WPB       0.147500
     21 C20         42.1910   -47.6160    12.0350 ca         1 WPB       0.174900
     22 O           40.9410   -46.7200    21.6050 o          1 WPB      -0.580100
     23 N           42.6570   -48.1800    21.1690 ns         1 WPB      -0.131000
     24 C           42.5760   -46.9740    17.6590 ca         1 WPB      -0.083000
     25 N1          45.1350   -46.8340    13.8200 na         1 WPB      -0.190400
     26 N3          43.4430   -47.1890    12.1430 nb         1 WPB      -0.231000
     27 N2          41.3800   -48.0430    13.0110 nb         1 WPB      -0.300000
     28 N4          40.9980   -48.4920    15.2380 nv         1 WPB      -1.069900
     29 H1          46.1150   -46.7400    15.7130 h4         1 WPB       0.217000
     30 H2          37.1150   -50.6840    24.3500 ha         1 WPB       0.136000
     31 H3          38.9720   -51.8170    23.1290 ha         1 WPB       0.122000
     32 H4          41.0930   -50.6160    22.7120 ha         1 WPB       0.124000
     33 H5          41.7610   -47.1570    24.0270 h1         1 WPB       0.075700
     34 H6          44.5900   -49.3270    19.9110 ha         1 WPB       0.111000
     35 H7          42.7990   -49.3130    24.4940 ho         1 WPB       0.467000
     36 H8          41.3560   -46.5750    19.3800 ha         1 WPB       0.151000
     37 H9          46.4750   -48.6700    17.3400 hc         1 WPB       0.044700
     38 H10         45.8260   -50.1190    18.1050 hc         1 WPB       0.044700
     39 H11         45.3890   -49.7090    16.4360 hc         1 WPB       0.044700
     40 H12         39.5200   -47.1670    24.7350 ha         1 WPB       0.140000
     41 H13         41.7700   -47.6310    11.0350 h5         1 WPB       0.044100
     42 H17         43.2460   -48.8500    21.6470 hn         1 WPB       0.174000
     43 H18         42.0080   -46.3020    17.0270 ha         1 WPB       0.127000
     44 H19         40.1520   -48.9570    14.9510 hn         1 WPB       0.497000
     45 H20         41.3420   -48.6710    16.1660 hn         1 WPB       0.497000
     46 C21         46.2020   -46.3640    12.9540 c3         1 WPB       0.074900
     47 F           37.2330   -48.2540    25.2500 f          1 WPB      -0.179000
     48 H14         47.0870   -46.1880    13.5610 h1         1 WPB       0.053700
     49 H15         46.4290   -47.1110    12.1940 h1         1 WPB       0.053700
     50 H16         45.9140   -45.4340    12.4630 h1         1 WPB       0.053700
@<TRIPOS>BOND
     1     1    15 2   
     2     1    25 1   
     3     1    29 1   
     4     2     3 ar  
     5     2    17 ar  
     6     2    30 1   
     7     3     4 ar  
     8     3    31 1   
     9     4     6 ar  
    10     4    32 1   
    11     5     6 1   
    12     5    11 1   
    13     5    16 1   
    14     5    33 1   
    15     6    18 ar  
    16     7    19 ar  
    17     7    27 ar  
    18     7    28 1   
    19     8     9 ar  
    20     8    15 1   
    21     8    24 ar  
    22     9    10 ar  
    23     9    14 1   
    24    10    12 ar  
    25    10    34 1   
    26    11    35 1   
    27    12    13 ar  
    28    12    23 1   
    29    13    24 ar  
    30    13    36 1   
    31    14    37 1   
    32    14    38 1   
    33    14    39 1   
    34    15    19 1   
    35    16    22 2   
    36    16    23 1   
    37    17    18 ar  
    38    17    47 1   
    39    18    40 1   
    40    19    20 ar  
    41    20    25 1   
    42    20    26 ar  
    43    21    26 ar  
    44    21    27 ar  
    45    21    41 1   
    46    23    42 1   
    47    24    43 1   
    48    25    46 1   
    49    28    44 1   
    50    28    45 1   
    51    46    48 1   
    52    46    49 1   
    53    46    50 1   
@<TRIPOS>SUBSTRUCTURE
     1 WPB         1 TEMP              0 ****  ****    0 ROOT
