@<TRIPOS>MOLECULE
WPB
   50    53     1     0     0
SMALL
No Charge or Current Charge


@<TRIPOS>ATOM
      1 C18         45.3530   -47.3770    15.2040 cc         1 WPB      -0.159100
      2 C13         38.4750   -50.7820    24.0180 ca         1 WPB      -0.133000
      3 C12         39.6340   -51.0740    23.2800 ca         1 WPB      -0.086000
      4 C11         40.6200   -50.0860    23.1000 ca         1 WPB      -0.110000
      5 C9          41.5190   -47.7180    23.4560 c3         1 WPB       0.134600
      6 C10         40.4550   -48.7990    23.6560 ca         1 WPB      -0.110300
      7 C19         41.7500   -47.5430    14.3460 ca         1 WPB       0.425900
      8 C1          43.6380   -47.5720    17.0760 ca         1 WPB      -0.049800
      9 C2          44.3130   -48.4370    17.9780 ca         1 WPB      -0.039300
     10 C3          43.9020   -48.4950    19.3260 ca         1 WPB      -0.167000
     11 O1          42.8020   -48.2150    23.9170 oh         1 WPB      -0.677000
     12 C4          42.8430   -47.7080    19.8070 ca         1 WPB      -0.019000
     13 C5          42.1850   -46.8410    18.9140 ca         1 WPB      -0.138000
     14 C6          45.4340   -49.3750    17.5360 c3         1 WPB      -0.047800
     15 C7          44.0430   -47.4100    15.6600 cd         1 WPB      -0.049400
     16 C8          41.5430   -47.2160    21.9760 c          1 WPB       0.610100
     17 C14         38.3060   -49.5040    24.5720 ca         1 WPB       0.166000
     18 C15         39.2870   -48.5160    24.3950 ca         1 WPB      -0.116000
     19 C16         43.1370   -47.3850    14.5140 ca         1 WPB      -0.245800
     20 C17         43.9250   -47.2520    13.3920 ca         1 WPB       0.147500
     21 C20         42.0460   -47.3230    12.0870 ca         1 WPB       0.174900
     22 O           40.7680   -46.3500    21.5740 o          1 WPB      -0.580100
     23 N           42.5000   -47.8350    21.1820 ns         1 WPB      -0.131000
     24 C           42.5860   -46.7740    17.5700 ca         1 WPB      -0.083000
     25 N1          45.2480   -47.2340    13.8110 na         1 WPB      -0.190400
     26 N3          43.3920   -47.2090    12.1540 nb         1 WPB      -0.231000
     27 N2          41.1970   -47.5060    13.1250 nb         1 WPB      -0.300000
     28 N4          40.8860   -47.8260    15.3490 nv         1 WPB      -1.069900
     29 H1          46.3010   -47.3960    15.7310 h4         1 WPB       0.217000
     30 H2          37.7100   -51.5410    24.1610 ha         1 WPB       0.136000
     31 H3          39.7710   -52.0630    22.8490 ha         1 WPB       0.122000
     32 H4          41.5140   -50.3270    22.5280 ha         1 WPB       0.124000
     33 H5          41.2390   -46.8410    24.0540 h1         1 WPB       0.075700
     34 H6          44.4140   -49.1690    20.0100 ha         1 WPB       0.111000
     35 H7          42.6680   -48.5460    24.8340 ho         1 WPB       0.467000
     36 H8          41.3710   -46.2010    19.2390 ha         1 WPB       0.151000
     37 H9          46.4030   -48.8620    17.5390 hc         1 WPB       0.044700
     38 H10         45.5220   -50.2380    18.2070 hc         1 WPB       0.044700
     39 H11         45.2560   -49.7760    16.5310 hc         1 WPB       0.044700
     40 H12         39.1330   -47.5320    24.8320 ha         1 WPB       0.140000
     41 H13         41.6020   -47.2880    11.0930 h5         1 WPB       0.044100
     42 H17         43.0660   -48.5040    21.6880 hn         1 WPB       0.174000
     43 H18         42.0960   -46.0590    16.9130 ha         1 WPB       0.127000
     44 H19         39.9740   -48.1990    15.1020 hn         1 WPB       0.497000
     45 H20         41.2770   -48.1200    16.2390 hn         1 WPB       0.497000
     46 C21         46.3540   -47.1130    12.8470 c3         1 WPB       0.074900
     47 F           37.1900   -49.2230    25.2810 f          1 WPB      -0.179000
     48 H14         47.3130   -47.0930    13.3790 h1         1 WPB       0.053700
     49 H15         46.3400   -47.9690    12.1610 h1         1 WPB       0.053700
     50 H16         46.2420   -46.1850    12.2720 h1         1 WPB       0.053700
@<TRIPOS>BOND
     1     1    15 2   
     2     1    25 1   
     3     1    29 1   
     4     2     3 ar  
     5     2    17 ar  
     6     2    30 1   
     7     3     4 ar  
     8     3    31 1   
     9     4     6 ar  
    10     4    32 1   
    11     5     6 1   
    12     5    11 1   
    13     5    16 1   
    14     5    33 1   
    15     6    18 ar  
    16     7    19 ar  
    17     7    27 ar  
    18     7    28 1   
    19     8     9 ar  
    20     8    15 1   
    21     8    24 ar  
    22     9    10 ar  
    23     9    14 1   
    24    10    12 ar  
    25    10    34 1   
    26    11    35 1   
    27    12    13 ar  
    28    12    23 1   
    29    13    24 ar  
    30    13    36 1   
    31    14    37 1   
    32    14    38 1   
    33    14    39 1   
    34    15    19 1   
    35    16    22 2   
    36    16    23 1   
    37    17    18 ar  
    38    17    47 1   
    39    18    40 1   
    40    19    20 ar  
    41    20    25 1   
    42    20    26 ar  
    43    21    26 ar  
    44    21    27 ar  
    45    21    41 1   
    46    23    42 1   
    47    24    43 1   
    48    25    46 1   
    49    28    44 1   
    50    28    45 1   
    51    46    48 1   
    52    46    49 1   
    53    46    50 1   
@<TRIPOS>SUBSTRUCTURE
     1 WPB         1 TEMP              0 ****  ****    0 ROOT
