@<TRIPOS>MOLECULE
WPD
   52    53     1     0     0
SMALL
abcg2


@<TRIPOS>ATOM
      1 C10        -20.9570    18.7730    -5.5450 ca         1 WPD      -0.129900
      2 O11        -21.7020    17.6450    -5.7320 os         1 WPD      -0.350100
      3 C01        -22.7140    20.7940    -7.8190 c3         1 WPD      -0.082100
      4 C02        -22.7810    20.3090    -6.3720 c3         1 WPD      -0.141700
      5 C03        -21.4160    20.0460    -5.8070 ca         1 WPD       0.194300
      6 C05        -19.4350    20.9080    -5.0960 ca         1 WPD       0.395900
      7 C08        -19.6500    18.6520    -5.0230 ca         1 WPD       0.392900
      8 C12        -21.6640    17.1130    -7.0540 c3         1 WPD       0.154600
      9 C13        -22.5190    15.8630    -7.1000 c3         1 WPD      -0.074400
     10 C14        -23.9350    16.0550    -6.5940 c3         1 WPD       0.172600
     11 C16        -25.7380    17.5730    -6.9440 ca         1 WPD       0.133100
     12 C17        -26.5120    17.0030    -5.9350 ca         1 WPD      -0.215000
     13 C18        -27.7250    17.5930    -5.6030 ca         1 WPD      -0.082000
     14 C19        -28.1690    18.7330    -6.2520 ca         1 WPD      -0.143000
     15 C20        -27.4000    19.3070    -7.2630 ca         1 WPD      -0.014300
     16 C21        -27.8770    20.5340    -7.9930 c3         1 WPD      -0.024100
     17 C22        -27.0020    21.7880    -7.8320 c3         1 WPD      -0.257700
     18 C23        -27.0550    22.3240    -6.4270 c3         1 WPD       0.180300
     19 C26        -27.5170    22.8750    -8.8140 c          1 WPD       0.729000
     20 C29        -26.1900    18.7160    -7.6020 ca         1 WPD      -0.141000
     21 F24        -26.5040    21.4560    -5.5230 f          1 WPD      -0.150000
     22 F25        -26.3040    23.4680    -6.3370 f          1 WPD      -0.150000
     23 N04        -20.6520    21.1230    -5.5810 nb         1 WPD      -0.267000
     24 N06        -18.6700    22.0000    -4.8290 nv         1 WPD      -1.051900
     25 N07        -18.8990    19.7230    -4.8000 nb         1 WPD      -0.335000
     26 N09        -19.1260    17.4390    -4.7580 nv         1 WPD      -1.072900
     27 O15        -24.5470    17.0870    -7.3490 os         1 WPD      -0.355100
     28 O27        -28.6040    23.4020    -8.5050 o          1 WPD      -0.718000
     29 O28        -26.8280    23.0950    -9.8250 o          1 WPD      -0.718000
     30 H1         -23.7140    21.0060    -8.1980 hc         1 WPD       0.040700
     31 H2         -22.1220    21.7060    -7.9010 hc         1 WPD       0.040700
     32 H3         -22.2650    20.0440    -8.4710 hc         1 WPD       0.040700
     33 H4         -23.2610    21.0760    -5.7600 hc         1 WPD       0.076700
     34 H5         -23.4030    19.4180    -6.3100 hc         1 WPD       0.076700
     35 H6         -20.6350    16.8680    -7.3380 h1         1 WPD       0.038700
     36 H7         -22.0290    17.8570    -7.7680 h1         1 WPD       0.038700
     37 H8         -22.5320    15.4980    -8.1300 hc         1 WPD       0.046700
     38 H9         -22.0590    15.0740    -6.4980 hc         1 WPD       0.046700
     39 H10        -23.9270    16.3130    -5.5310 h1         1 WPD       0.034700
     40 H11        -24.4940    15.1190    -6.6990 h1         1 WPD       0.034700
     41 H12        -26.1940    16.1110    -5.4130 ha         1 WPD       0.100000
     42 H13        -28.3270    17.1510    -4.8190 ha         1 WPD       0.095000
     43 H14        -29.1150    19.1820    -5.9750 ha         1 WPD       0.111000
     44 H15        -28.8980    20.7690    -7.6850 hc         1 WPD       0.058200
     45 H16        -27.9250    20.3060    -9.0610 hc         1 WPD       0.058200
     46 H17        -25.9630    21.5370    -8.0700 hc         1 WPD       0.058700
     47 H18        -28.0670    22.5560    -6.0950 h2         1 WPD       0.061700
     48 H19        -25.5750    19.1440    -8.3870 ha         1 WPD       0.131000
     49 H20        -17.6810    21.8550    -4.7210 hn         1 WPD       0.479500
     50 H21        -18.9360    22.8640    -5.2690 hn         1 WPD       0.479500
     51 H22        -18.2720    17.3970    -4.2270 hn         1 WPD       0.485500
     52 H23        -19.7330    16.6400    -4.6950 hn         1 WPD       0.485500
@<TRIPOS>BOND
     1     1     2 1   
     2     1     5 ar  
     3     1     7 ar  
     4     2     8 1   
     5     3     4 1   
     6     3    30 1   
     7     3    31 1   
     8     3    32 1   
     9     4     5 1   
    10     4    33 1   
    11     4    34 1   
    12     5    23 ar  
    13     6    23 ar  
    14     6    24 1   
    15     6    25 ar  
    16     7    25 ar  
    17     7    26 1   
    18     8     9 1   
    19     8    35 1   
    20     8    36 1   
    21     9    10 1   
    22     9    37 1   
    23     9    38 1   
    24    10    27 1   
    25    10    39 1   
    26    10    40 1   
    27    11    12 ar  
    28    11    20 ar  
    29    11    27 1   
    30    12    13 ar  
    31    12    41 1   
    32    13    14 ar  
    33    13    42 1   
    34    14    15 ar  
    35    14    43 1   
    36    15    16 1   
    37    15    20 ar  
    38    16    17 1   
    39    16    44 1   
    40    16    45 1   
    41    17    18 1   
    42    17    19 1   
    43    17    46 1   
    44    18    21 1   
    45    18    22 1   
    46    18    47 1   
    47    19    28 1   
    48    19    29 1   
    49    20    48 1   
    50    24    49 1   
    51    24    50 1   
    52    26    51 1   
    53    26    52 1   
@<TRIPOS>SUBSTRUCTURE
     1 WPD         1 TEMP              0 ****  ****    0 ROOT
