@<TRIPOS>MOLECULE
WPD
   52    53     1     0     0
SMALL
No Charge or Current Charge


@<TRIPOS>ATOM
      1 C10        -20.6330    18.6010    -5.5370 ca         1 WPD      -0.129900
      2 O11        -21.3590    17.4450    -5.7650 os         1 WPD      -0.350100
      3 C01        -23.5820    20.3430    -5.9120 c3         1 WPD      -0.082100
      4 C02        -22.7570    19.8140    -4.7220 c3         1 WPD      -0.141700
      5 C03        -21.2630    19.7590    -5.0260 ca         1 WPD       0.194300
      6 C05        -19.2500    20.8420    -5.0770 ca         1 WPD       0.395900
      7 C08        -19.2420    18.6890    -5.7770 ca         1 WPD       0.392900
      8 C12        -21.5780    16.9900    -7.1120 c3         1 WPD       0.154600
      9 C13        -22.5570    15.7980    -7.0620 c3         1 WPD      -0.074400
     10 C14        -23.9400    16.1490    -6.4740 c3         1 WPD       0.172600
     11 C16        -25.7510    17.7340    -7.0080 ca         1 WPD       0.133100
     12 C17        -26.5140    17.3590    -5.8810 ca         1 WPD      -0.215000
     13 C18        -27.7250    18.0160    -5.6060 ca         1 WPD      -0.082000
     14 C19        -28.1760    19.0450    -6.4480 ca         1 WPD      -0.143000
     15 C20        -27.4190    19.4300    -7.5710 ca         1 WPD      -0.014300
     16 C21        -27.9020    20.5490    -8.4890 c3         1 WPD      -0.024100
     17 C22        -27.0520    21.8520    -8.4040 c3         1 WPD      -0.257700
     18 C23        -27.2540    22.6390    -7.0870 c3         1 WPD       0.180300
     19 C26        -27.3650    22.7670    -9.5970 c          1 WPD       0.729000
     20 C29        -26.2110    18.7620    -7.8470 ca         1 WPD      -0.141000
     21 F24        -26.8610    21.9050    -6.0220 f          1 WPD      -0.150000
     22 F25        -26.4890    23.7550    -7.0930 f          1 WPD      -0.150000
     23 N04        -20.5610    20.8890    -4.8000 nb         1 WPD      -0.267000
     24 N06        -18.5490    21.9750    -4.8500 nv         1 WPD      -1.051900
     25 N07        -18.5460    19.8080    -5.5480 nb         1 WPD      -0.335000
     26 N09        -18.4940    17.6390    -6.2120 nv         1 WPD      -1.072900
     27 O15        -24.5500    17.1360    -7.3240 os         1 WPD      -0.355100
     28 O27        -28.5020    23.1970    -9.7170 o          1 WPD      -0.718000
     29 O28        -26.4650    23.0040   -10.3890 o          1 WPD      -0.718000
     30 H1         -24.6520    20.3190    -5.6740 hc         1 WPD       0.040700
     31 H2         -23.3050    21.3770    -6.1490 hc         1 WPD       0.040700
     32 H3         -23.4150    19.7280    -6.8040 hc         1 WPD       0.040700
     33 H4         -22.9420    20.4520    -3.8490 hc         1 WPD       0.076700
     34 H5         -23.1260    18.8180    -4.4480 hc         1 WPD       0.076700
     35 H6         -20.6390    16.6690    -7.5790 h1         1 WPD       0.038700
     36 H7         -22.0060    17.7930    -7.7260 h1         1 WPD       0.038700
     37 H8         -22.6900    15.4020    -8.0760 hc         1 WPD       0.046700
     38 H9         -22.1100    14.9930    -6.4670 hc         1 WPD       0.046700
     39 H10        -23.8170    16.5340    -5.4540 h1         1 WPD       0.034700
     40 H11        -24.5580    15.2430    -6.4300 h1         1 WPD       0.034700
     41 H12        -26.1860    16.5680    -5.2140 ha         1 WPD       0.100000
     42 H13        -28.3150    17.7280    -4.7380 ha         1 WPD       0.095000
     43 H14        -29.1130    19.5500    -6.2230 ha         1 WPD       0.111000
     44 H15        -28.9540    20.7880    -8.2850 hc         1 WPD       0.058200
     45 H16        -27.8780    20.1840    -9.5230 hc         1 WPD       0.058200
     46 H17        -25.9940    21.5730    -8.4720 hc         1 WPD       0.058700
     47 H18        -28.3050    22.9240    -6.9610 h2         1 WPD       0.061700
     48 H19        -25.6180    19.0470    -8.7110 ha         1 WPD       0.131000
     49 H20        -17.6130    22.0490    -5.2420 hn         1 WPD       0.479500
     50 H21        -19.0570    22.8430    -4.7020 hn         1 WPD       0.479500
     51 H22        -17.4840    17.7080    -6.1210 hn         1 WPD       0.485500
     52 H23        -18.8950    16.7100    -6.1280 hn         1 WPD       0.485500
@<TRIPOS>BOND
     1     1     2 1   
     2     1     5 ar  
     3     1     7 ar  
     4     2     8 1   
     5     3     4 1   
     6     3    30 1   
     7     3    31 1   
     8     3    32 1   
     9     4     5 1   
    10     4    33 1   
    11     4    34 1   
    12     5    23 ar  
    13     6    23 ar  
    14     6    24 1   
    15     6    25 ar  
    16     7    25 ar  
    17     7    26 1   
    18     8     9 1   
    19     8    35 1   
    20     8    36 1   
    21     9    10 1   
    22     9    37 1   
    23     9    38 1   
    24    10    27 1   
    25    10    39 1   
    26    10    40 1   
    27    11    12 ar  
    28    11    20 ar  
    29    11    27 1   
    30    12    13 ar  
    31    12    41 1   
    32    13    14 ar  
    33    13    42 1   
    34    14    15 ar  
    35    14    43 1   
    36    15    16 1   
    37    15    20 ar  
    38    16    17 1   
    39    16    44 1   
    40    16    45 1   
    41    17    18 1   
    42    17    19 1   
    43    17    46 1   
    44    18    21 1   
    45    18    22 1   
    46    18    47 1   
    47    19    28 1   
    48    19    29 1   
    49    20    48 1   
    50    24    49 1   
    51    24    50 1   
    52    26    51 1   
    53    26    52 1   
@<TRIPOS>SUBSTRUCTURE
     1 WPD         1 TEMP              0 ****  ****    0 ROOT
