@<TRIPOS>MOLECULE
WPE
   48    51     1     0     0
SMALL
No Charge or Current Charge


@<TRIPOS>ATOM
      1 CAD          1.2370    -1.2890     2.1680 ca         1 WPE      -0.093000
      2 CAA          1.6000    -2.3820     2.9740 ca         1 WPE      -0.111500
      3 CAB          2.3910    -3.4160     2.4450 ca         1 WPE      -0.102000
      4 CAC          2.8180    -3.3570     1.1080 ca         1 WPE      -0.111500
      5 CAF          2.4540    -2.2650     0.3000 ca         1 WPE      -0.093000
      6 CAE          1.6620    -1.2230     0.8250 ca         1 WPE      -0.117300
      7 CAK          1.2650    -0.0280    -0.0530 c6         1 WPE       0.340100
      8 CAJ          2.4980     0.6930    -0.5840 ca         1 WPE      -0.141300
      9 CAI          3.3480     1.3980     0.2910 ca         1 WPE      -0.072000
     10 CAH          4.4940     2.0400    -0.2080 ca         1 WPE       0.102000
     11 Cl           5.5540     2.9180     0.8860 cl         1 WPE      -0.206000
     12 CAR          4.7960     1.9780    -1.5780 ca         1 WPE      -0.088000
     13 CAS          3.9470     1.2720    -2.4500 ca         1 WPE      -0.091000
     14 CAT          2.7980     0.6310    -1.9540 ca         1 WPE       0.173400
     15 NAU          1.9500    -0.0660    -2.8270 ne         1 WPE      -0.662100
     16 CAV          0.8210    -0.5770    -2.4420 c2         1 WPE       0.671200
     17 CAW         -0.0490    -1.2480    -3.4820 c3         1 WPE      -0.141400
     18 NAL          0.3520    -0.4610    -1.1360 nh         1 WPE      -0.782600
     19 CAM         -1.0450    -0.7490    -0.7290 c3         1 WPE       0.205800
     20 CAN         -2.0370     0.4000    -1.0360 c3         1 WPE       0.082000
     21 NAO         -3.4160     0.1020    -0.6230 ns         1 WPE      -0.502900
     22 CAP         -3.8530     0.0380     0.6840 c          1 WPE       0.538600
     23 OAQ         -3.1070     0.2500     1.6310 o          1 WPE      -0.588100
     24 CAY         -5.2940    -0.3060     0.8070 cc         1 WPE       0.050500
     25 CAX         -5.9990    -0.4380     1.9750 cd         1 WPE      -0.100000
     26 CBA         -7.3210    -0.7700     1.6140 cd         1 WPE      -0.198000
     27 CBB         -7.3720    -0.8280     0.2470 cc         1 WPE       0.145900
     28 OAZ         -6.1260    -0.5430    -0.2710 os         1 WPE      -0.247000
     29 HAD          0.6230    -0.4950     2.5880 ha         1 WPE       0.116500
     30 HAA          1.2690    -2.4270     4.0090 ha         1 WPE       0.115000
     31 HAB          2.6720    -4.2610     3.0700 ha         1 WPE       0.114000
     32 HAC          3.4290    -4.1570     0.6970 ha         1 WPE       0.115000
     33 HAF          2.7890    -2.2290    -0.7340 ha         1 WPE       0.116500
     34 HAK          0.7280     0.6900     0.5850 h1         1 WPE       0.062700
     35 HAI          3.1250     1.4450     1.3540 ha         1 WPE       0.127000
     36 HAR          5.6830     2.4740    -1.9630 ha         1 WPE       0.129000
     37 HAS          4.1770     1.2240    -3.5110 ha         1 WPE       0.132000
     38 HAW1         0.4810    -1.3570    -4.4350 hc         1 WPE       0.062033
     39 HAW2        -0.3420    -2.2530    -3.1600 hc         1 WPE       0.062033
     40 HAW3        -0.9550    -0.6670    -3.6790 hc         1 WPE       0.062033
     41 HAM1        -1.4020    -1.6740    -1.2000 h1         1 WPE       0.057700
     42 HAM2        -1.0780    -0.9310     0.3530 h1         1 WPE       0.057700
     43 HAN1        -1.7020     1.3080    -0.5190 h1         1 WPE       0.061700
     44 HAN2        -2.0340     0.6110    -2.1120 h1         1 WPE       0.061700
     45 HAO         -4.1120    -0.0840    -1.3380 hn         1 WPE       0.327500
     46 HAX         -5.6060    -0.3100     2.9790 ha         1 WPE       0.160000
     47 HBA         -8.1520    -0.9490     2.2890 ha         1 WPE       0.148000
     48 HBB         -8.1750    -1.0450    -0.4450 h4         1 WPE       0.055100
@<TRIPOS>BOND
     1     1     2 ar  
     2     1     6 ar  
     3     1    29 1   
     4     2     3 ar  
     5     2    30 1   
     6     3     4 ar  
     7     3    31 1   
     8     4     5 ar  
     9     4    32 1   
    10     5     6 ar  
    11     5    33 1   
    12     6     7 1   
    13     7     8 1   
    14     7    18 1   
    15     7    34 1   
    16     8     9 ar  
    17     8    14 ar  
    18     9    10 ar  
    19     9    35 1   
    20    10    11 1   
    21    10    12 ar  
    22    12    13 ar  
    23    12    36 1   
    24    13    14 ar  
    25    13    37 1   
    26    14    15 1   
    27    15    16 2   
    28    16    17 1   
    29    16    18 1   
    30    17    38 1   
    31    17    39 1   
    32    17    40 1   
    33    18    19 1   
    34    19    20 1   
    35    19    41 1   
    36    19    42 1   
    37    20    21 1   
    38    20    43 1   
    39    20    44 1   
    40    21    22 1   
    41    21    45 1   
    42    22    23 2   
    43    22    24 1   
    44    24    25 2   
    45    24    28 1   
    46    25    26 1   
    47    25    46 1   
    48    26    27 2   
    49    26    47 1   
    50    27    28 1   
    51    27    48 1   
@<TRIPOS>SUBSTRUCTURE
     1 WPE         1 TEMP              0 ****  ****    0 ROOT
