@<TRIPOS>MOLECULE
WPE
   48    51     1     0     0
SMALL
abcg2


@<TRIPOS>ATOM
      1 CAD          1.5050    -1.6160     2.0730 ca         1 WPE      -0.093000
      2 CAA          1.9590    -2.7570     2.7250 ca         1 WPE      -0.111500
      3 CAB          2.6270    -3.7410     2.0130 ca         1 WPE      -0.102000
      4 CAC          2.8420    -3.5810     0.6480 ca         1 WPE      -0.111500
      5 CAF          2.3930    -2.4400     0.0010 ca         1 WPE      -0.093000
      6 CAE          1.7190    -1.4480     0.7110 ca         1 WPE      -0.117300
      7 CAK          1.2400    -0.1890     0.0140 c6         1 WPE       0.340100
      8 CAJ          2.3980     0.6560    -0.4420 ca         1 WPE      -0.141300
      9 CAI          3.1720     1.3390     0.4830 ca         1 WPE      -0.072000
     10 CAH          4.2760     2.0550     0.0530 ca         1 WPE       0.102000
     11 CL           5.2450     2.9080     1.2110 cl         1 WPE      -0.206000
     12 CAR          4.6190     2.0950    -1.2920 ca         1 WPE      -0.088000
     13 CAS          3.8330     1.4210    -2.2080 ca         1 WPE      -0.091000
     14 CAT          2.7080     0.6970    -1.8020 ca         1 WPE       0.173400
     15 NAU          1.9300     0.0770    -2.7640 ne         1 WPE      -0.662100
     16 CAV          0.8030    -0.4400    -2.3960 c2         1 WPE       0.671200
     17 CAW         -0.0770    -1.0080    -3.4660 c3         1 WPE      -0.141400
     18 NAL          0.3690    -0.5020    -1.1130 nh         1 WPE      -0.782600
     19 CAM         -0.9650    -0.9310    -0.7480 c3         1 WPE       0.205800
     20 CAN         -1.9050     0.2630    -0.6130 c3         1 WPE       0.082000
     21 NAO         -3.1990    -0.1870    -0.1520 ns         1 WPE      -0.502900
     22 CAP         -4.1700     0.6760     0.1810 c          1 WPE       0.538600
     23 OAQ         -4.0380     1.8920     0.1250 o          1 WPE      -0.588100
     24 CAY         -5.4410     0.0940     0.6340 cc         1 WPE       0.050500
     25 CAX         -6.5880     0.7010     1.0360 cd         1 WPE      -0.100000
     26 CBA         -7.4950    -0.3440     1.3650 cd         1 WPE      -0.198000
     27 CBB         -6.8290    -1.5020     1.1360 cc         1 WPE       0.145900
     28 OAZ         -5.5850    -1.2490     0.6940 os         1 WPE      -0.247000
     29 HAD          0.9760    -0.8500     2.6300 ha         1 WPE       0.116500
     30 HAA          1.7840    -2.8770     3.7870 ha         1 WPE       0.115000
     31 HAB          2.9810    -4.6320     2.5160 ha         1 WPE       0.114000
     32 HAC          3.3630    -4.3470     0.0890 ha         1 WPE       0.115000
     33 HAF          2.5760    -2.3260    -1.0610 ha         1 WPE       0.116500
     34 HAK          0.6530     0.3880     0.7380 h1         1 WPE       0.062700
     35 HAI          2.9190     1.3040     1.5360 ha         1 WPE       0.127000
     36 HAR          5.4870     2.6500    -1.6220 ha         1 WPE       0.129000
     37 HAS          4.0810     1.4540    -3.2610 ha         1 WPE       0.132000
     38 HAW1         0.4010    -0.8560    -4.4290 hc         1 WPE       0.062033
     39 HAW2        -0.2400    -2.0770    -3.3230 hc         1 WPE       0.062033
     40 HAW3        -1.0560    -0.5280    -3.4910 hc         1 WPE       0.062033
     41 HAM1        -1.3560    -1.6430    -1.4730 h1         1 WPE       0.057700
     42 HAM2        -0.9080    -1.4690     0.2010 h1         1 WPE       0.057700
     43 HAN1        -1.4860     0.9820     0.0950 h1         1 WPE       0.061700
     44 HAN2        -1.9920     0.7740    -1.5750 h1         1 WPE       0.061700
     45 HAO         -3.3730    -1.1790    -0.1040 hn         1 WPE       0.327500
     46 HAX         -6.7650     1.7630     1.0910 ha         1 WPE       0.160000
     47 HBA         -8.5060    -0.2460     1.7220 ha         1 WPE       0.148000
     48 HBB         -7.1040    -2.5400     1.2390 h4         1 WPE       0.055100
@<TRIPOS>BOND
     1     1     2 ar  
     2     1     6 ar  
     3     1    29 1   
     4     2     3 ar  
     5     2    30 1   
     6     3     4 ar  
     7     3    31 1   
     8     4     5 ar  
     9     4    32 1   
    10     5     6 ar  
    11     5    33 1   
    12     6     7 1   
    13     7     8 1   
    14     7    18 1   
    15     7    34 1   
    16     8     9 ar  
    17     8    14 ar  
    18     9    10 ar  
    19     9    35 1   
    20    10    11 1   
    21    10    12 ar  
    22    12    13 ar  
    23    12    36 1   
    24    13    14 ar  
    25    13    37 1   
    26    14    15 1   
    27    15    16 2   
    28    16    17 1   
    29    16    18 1   
    30    17    38 1   
    31    17    39 1   
    32    17    40 1   
    33    18    19 1   
    34    19    20 1   
    35    19    41 1   
    36    19    42 1   
    37    20    21 1   
    38    20    43 1   
    39    20    44 1   
    40    21    22 1   
    41    21    45 1   
    42    22    23 2   
    43    22    24 1   
    44    24    25 2   
    45    24    28 1   
    46    25    26 1   
    47    25    46 1   
    48    26    27 2   
    49    26    47 1   
    50    27    28 1   
    51    27    48 1   
@<TRIPOS>SUBSTRUCTURE
     1 WPE         1 TEMP              0 ****  ****    0 ROOT
