@<TRIPOS>MOLECULE
WPF
   51    53     1     0     0
SMALL
bcc


@<TRIPOS>ATOM
      1 CAR          6.3830     1.3670     1.4930 c3         1 WPF       0.148600
      2 NAQ          5.3700     0.4760     0.9710 n3         1 WPF      -0.711600
      3 CAY          5.2060    -0.6740     1.8350 c3         1 WPF       0.148600
      4 CAP          4.1250     1.1880     0.7510 c3         1 WPF       0.167800
      5 CAO          3.0880     0.3840    -0.0190 c3         1 WPF      -0.103400
      6 CAN          1.8850     1.2490    -0.3740 c3         1 WPF       0.220800
      7 NAM          0.8010     0.4780    -0.9610 nh         1 WPF      -0.778600
      8 CAW          0.6930     0.2430    -2.2860 c2         1 WPF       0.676200
      9 CAX          1.6120     0.9820    -3.2110 c3         1 WPF      -0.141400
     10 NAV         -0.1510    -0.5810    -2.8230 ne         1 WPF      -0.674100
     11 CAU         -0.9210    -1.3590    -1.9780 ca         1 WPF       0.178400
     12 CAT         -1.6840    -2.3970    -2.5220 ca         1 WPF      -0.114000
     13 CAS         -2.4360    -3.2320    -1.7160 ca         1 WPF      -0.105000
     14 CAI         -2.4250    -3.0350    -0.3410 ca         1 WPF       0.006400
     15 CL1         -3.3600    -4.0800     0.6830 cl         1 WPF      -0.119400
     16 CAJ         -1.6840    -2.0110     0.2240 ca         1 WPF      -0.089000
     17 CAK         -0.9430    -1.1720    -0.5950 ca         1 WPF      -0.147300
     18 CAL         -0.1890    -0.0110    -0.0070 c6         1 WPF       0.342100
     19 CAF         -1.1210     1.1040     0.4240 ca         1 WPF      -0.119300
     20 CAG         -1.1740     1.5090     1.7510 ca         1 WPF      -0.107500
     21 CAD         -2.0270     2.5310     2.1500 ca         1 WPF      -0.131500
     22 CAC         -2.8450     3.1790     1.2310 ca         1 WPF      -0.066300
     23 CAA         -3.7460     4.3040     1.6470 c3         1 WPF      -0.048800
     24 CAB         -2.7880     2.7660    -0.1020 ca         1 WPF      -0.131500
     25 CAE         -1.9410     1.7470    -0.5010 ca         1 WPF      -0.107500
     26 HAR1         7.3300     0.8360     1.5970 h1         1 WPF       0.031367
     27 HAR2         6.5400     2.2000     0.8060 h1         1 WPF       0.031367
     28 HAR3         6.1270     1.7900     2.4780 h1         1 WPF       0.031367
     29 HAY1         4.7990    -0.4150     2.8260 h1         1 WPF       0.031367
     30 HAY2         4.5440    -1.4140     1.3850 h1         1 WPF       0.031367
     31 HAY3         6.1720    -1.1570     1.9900 h1         1 WPF       0.031367
     32 HAP1         3.6820     1.5330     1.7030 h1         1 WPF       0.028200
     33 HAP2         4.3600     2.0930     0.1800 h1         1 WPF       0.028200
     34 HAO1         3.5400    -0.0140    -0.9320 hc         1 WPF       0.056700
     35 HAO2         2.7480    -0.4750     0.5660 hc         1 WPF       0.056700
     36 HAN1         1.4960     1.7380     0.5230 h1         1 WPF       0.052700
     37 HAN2         2.1800     2.0610    -1.0390 h1         1 WPF       0.052700
     38 HAL          0.3480    -0.3590     0.8820 h1         1 WPF       0.059700
     39 HAX1         2.6600     0.7500    -3.0160 hc         1 WPF       0.061700
     40 HAX2         1.3860     0.6930    -4.2330 hc         1 WPF       0.061700
     41 HAX3         1.4940     2.0620    -3.1190 hc         1 WPF       0.061700
     42 HAT         -1.6730    -2.5480    -3.5940 ha         1 WPF       0.149000
     43 HAS         -3.0190    -4.0320    -2.1520 ha         1 WPF       0.146000
     44 HAJ         -1.6910    -1.8560     1.2960 ha         1 WPF       0.144000
     45 HAG         -0.5410     1.0220     2.4840 ha         1 WPF       0.134000
     46 HAE         -1.9290     1.4490    -1.5440 ha         1 WPF       0.134000
     47 HAD         -2.0510     2.8280     3.1920 ha         1 WPF       0.131000
     48 HAA1        -3.2650     5.2710     1.4810 hc         1 WPF       0.043367
     49 HAA2        -4.6740     4.3060     1.0750 hc         1 WPF       0.043367
     50 HAA3        -4.0010     4.2450     2.7050 hc         1 WPF       0.043367
     51 HAB         -3.4210     3.2500    -0.8360 ha         1 WPF       0.131000
@<TRIPOS>BOND
     1     1     2 1   
     2     1    26 1   
     3     1    27 1   
     4     1    28 1   
     5     2     3 1   
     6     2     4 1   
     7     3    29 1   
     8     3    30 1   
     9     3    31 1   
    10     4     5 1   
    11     4    32 1   
    12     4    33 1   
    13     5     6 1   
    14     5    34 1   
    15     5    35 1   
    16     6     7 1   
    17     6    36 1   
    18     6    37 1   
    19     7     8 1   
    20     7    18 1   
    21     8     9 1   
    22     8    10 2   
    23     9    39 1   
    24     9    40 1   
    25     9    41 1   
    26    10    11 1   
    27    11    12 ar  
    28    11    17 ar  
    29    12    13 ar  
    30    12    42 1   
    31    13    14 ar  
    32    13    43 1   
    33    14    15 1   
    34    14    16 ar  
    35    16    17 ar  
    36    16    44 1   
    37    17    18 1   
    38    18    19 1   
    39    18    38 1   
    40    19    20 ar  
    41    19    25 ar  
    42    20    21 ar  
    43    20    45 1   
    44    21    22 ar  
    45    21    47 1   
    46    22    23 1   
    47    22    24 ar  
    48    23    48 1   
    49    23    49 1   
    50    23    50 1   
    51    24    25 ar  
    52    24    51 1   
    53    25    46 1   
@<TRIPOS>SUBSTRUCTURE
     1 WPF         1 TEMP              0 ****  ****    0 ROOT
