@<TRIPOS>MOLECULE
WPF
   51    53     1     0     0
SMALL
No Charge or Current Charge


@<TRIPOS>ATOM
      1 CAR          6.6120     1.4300     1.3780 c3         1 WPF       0.148600
      2 NAQ          5.5350     0.5200     0.9280 n3         1 WPF      -0.711600
      3 CAY          5.4530    -0.6960     1.7720 c3         1 WPF       0.148600
      4 CAP          4.2410     1.2290     0.7650 c3         1 WPF       0.167800
      5 CAO          3.1360     0.4060     0.0680 c3         1 WPF      -0.103400
      6 CAN          1.8730     1.2420    -0.2120 c3         1 WPF       0.220800
      7 NAM          0.7940     0.4700    -0.8690 nh         1 WPF      -0.778600
      8 CAW          0.7490     0.2100    -2.2370 c2         1 WPF       0.676200
      9 CAX          1.7020     0.9370    -3.1610 c3         1 WPF      -0.141400
     10 NAV         -0.0390    -0.6840    -2.7520 ne         1 WPF      -0.674100
     11 CAU         -0.9170    -1.4530    -1.9740 ca         1 WPF       0.178400
     12 CAT         -1.6530    -2.4940    -2.5650 ca         1 WPF      -0.096000
     13 CAS         -2.5300    -3.2710    -1.7870 ca         1 WPF      -0.087000
     14 CAI         -2.6690    -3.0030    -0.4150 ca         1 WPF       0.098000
     15 Cl1         -3.7670    -3.9700     0.5610 cl         1 WPF      -0.211000
     16 CAJ         -1.9360    -1.9610     0.1770 ca         1 WPF      -0.071000
     17 CAK         -1.0570    -1.1840    -0.6040 ca         1 WPF      -0.147300
     18 CAL         -0.2750    -0.0360     0.0200 c6         1 WPF       0.342100
     19 CAF         -1.2140     1.1040     0.4380 ca         1 WPF      -0.119300
     20 CAG         -1.2880     1.5050     1.7870 ca         1 WPF      -0.089500
     21 CAD         -2.1490     2.5480     2.1710 ca         1 WPF      -0.113500
     22 CAC         -2.9470     3.2010     1.2140 ca         1 WPF      -0.066300
     23 CAA         -3.8760     4.3310     1.6310 c3         1 WPF      -0.048800
     24 CAB         -2.8730     2.8030    -0.1340 ca         1 WPF      -0.113500
     25 CAE         -2.0130     1.7610    -0.5200 ca         1 WPF      -0.089500
     26 HAR1         7.5770     0.9050     1.4110 h1         1 WPF       0.031367
     27 HAR2         6.7160     2.2810     0.6910 h1         1 WPF       0.031367
     28 HAR3         6.4000     1.8220     2.3820 h1         1 WPF       0.031367
     29 HAY1         5.0990    -0.4490     2.7820 h1         1 WPF       0.031367
     30 HAY2         4.7720    -1.4390     1.3370 h1         1 WPF       0.031367
     31 HAY3         6.4400    -1.1710     1.8620 h1         1 WPF       0.031367
     32 HAP1         3.8690     1.5580     1.7450 h1         1 WPF       0.028200
     33 HAP2         4.4040     2.1340     0.1650 h1         1 WPF       0.028200
     34 HAO1         3.5290     0.0020    -0.8720 hc         1 WPF       0.056700
     35 HAO2         2.8550    -0.4470     0.6950 hc         1 WPF       0.056700
     36 HAN1         1.5130     1.6240     0.7540 h1         1 WPF       0.052700
     37 HAN2         2.1360     2.1260    -0.8080 h1         1 WPF       0.052700
     38 HAL          0.1940    -0.4330     0.9340 h1         1 WPF       0.059700
     39 HAX1         2.7410     0.6520    -2.9670 hc         1 WPF       0.061700
     40 HAX2         1.4910     0.7070    -4.2110 hc         1 WPF       0.061700
     41 HAX3         1.6100     2.0220    -3.0430 hc         1 WPF       0.061700
     42 HAT         -1.5420    -2.7000    -3.6270 ha         1 WPF       0.131000
     43 HAS         -3.0980    -4.0770    -2.2450 ha         1 WPF       0.128000
     44 HAJ         -2.0560    -1.7550     1.2380 ha         1 WPF       0.126000
     45 HAG         -0.6780     1.0110     2.5400 ha         1 WPF       0.116000
     46 HAE         -1.9660     1.4640    -1.5650 ha         1 WPF       0.116000
     47 HAD         -2.1940     2.8480     3.2150 ha         1 WPF       0.113000
     48 HAA1        -3.3620     5.2980     1.5780 hc         1 WPF       0.043367
     49 HAA2        -4.7580     4.3840     0.9820 hc         1 WPF       0.043367
     50 HAA3        -4.2330     4.1970     2.6590 hc         1 WPF       0.043367
     51 HAB         -3.4820     3.3020    -0.8850 ha         1 WPF       0.113000
@<TRIPOS>BOND
     1     1     2 1   
     2     1    26 1   
     3     1    27 1   
     4     1    28 1   
     5     2     3 1   
     6     2     4 1   
     7     3    29 1   
     8     3    30 1   
     9     3    31 1   
    10     4     5 1   
    11     4    32 1   
    12     4    33 1   
    13     5     6 1   
    14     5    34 1   
    15     5    35 1   
    16     6     7 1   
    17     6    36 1   
    18     6    37 1   
    19     7     8 1   
    20     7    18 1   
    21     8     9 1   
    22     8    10 2   
    23     9    39 1   
    24     9    40 1   
    25     9    41 1   
    26    10    11 1   
    27    11    12 ar  
    28    11    17 ar  
    29    12    13 ar  
    30    12    42 1   
    31    13    14 ar  
    32    13    43 1   
    33    14    15 1   
    34    14    16 ar  
    35    16    17 ar  
    36    16    44 1   
    37    17    18 1   
    38    18    19 1   
    39    18    38 1   
    40    19    20 ar  
    41    19    25 ar  
    42    20    21 ar  
    43    20    45 1   
    44    21    22 ar  
    45    21    47 1   
    46    22    23 1   
    47    22    24 ar  
    48    23    48 1   
    49    23    49 1   
    50    23    50 1   
    51    24    25 ar  
    52    24    51 1   
    53    25    46 1   
@<TRIPOS>SUBSTRUCTURE
     1 WPF         1 TEMP              0 ****  ****    0 ROOT
