@<TRIPOS>MOLECULE
WPH
   72    76     1     0     0
SMALL
No Charge or Current Charge


@<TRIPOS>ATOM
      1 C35         12.5180     1.9790     1.0600 c3         1 WPH       0.146100
      2 N36         12.1560     2.3930    -0.3160 n3         1 WPH      -0.695600
      3 C39         13.1110     3.3800    -0.8670 c3         1 WPH       0.146100
      4 C37         11.9260     1.2490    -1.2480 c3         1 WPH       0.164800
      5 C38         10.7990     0.2530    -0.8620 c3         1 WPH       0.163600
      6 O34          9.5460     0.9630    -0.7930 os         1 WPH      -0.323100
      7 C9           8.3620     0.3350    -0.4680 ca         1 WPH       0.158100
      8 C10          7.1970     1.1140    -0.4190 ca         1 WPH      -0.178500
      9 C11          5.9590     0.5320    -0.0940 ca         1 WPH      -0.046000
     10 C8           8.2820    -1.0450    -0.1850 ca         1 WPH      -0.178500
     11 C7           7.0440    -1.6270     0.1400 ca         1 WPH      -0.046000
     12 C6           5.8690    -0.8480     0.1860 ca         1 WPH      -0.080800
     13 C2           4.5900    -1.4810     0.5300 cc         1 WPH       0.091900
     14 O3           4.5120    -2.7810     1.0290 os         1 WPH      -0.276400
     15 C1           3.3380    -0.9190     0.3790 cd         1 WPH      -0.206200
     16 C5           2.4030    -1.9140     0.8150 ca         1 WPH      -0.277800
     17 C4           3.1550    -2.9980     1.1900 ca         1 WPH       0.287300
     18 N12          2.5990    -4.1300     1.6560 nb         1 WPH      -0.199000
     19 C13          1.2450    -4.1130     1.7240 ca         1 WPH       0.180900
     20 N14          0.4210    -3.0910     1.3770 nb         1 WPH      -0.284000
     21 C15          1.0120    -1.9710     0.9130 ca         1 WPH       0.432900
     22 N40          0.2150    -0.8990     0.5450 nu         1 WPH      -0.923100
     23 C16         -1.2560    -0.8250     0.5980 c3         1 WPH       0.228800
     24 C17         -1.7600     0.5440     0.0990 c3         1 WPH      -0.042100
     25 C18         -3.2790     0.6440     0.1450 ca         1 WPH      -0.112300
     26 C23         -4.0520     0.2540    -0.9640 ca         1 WPH      -0.074000
     27 C22         -5.4550     0.3390    -0.9210 ca         1 WPH      -0.151500
     28 C19         -3.9260     1.1180     1.3010 ca         1 WPH      -0.074000
     29 C20         -5.3280     1.2020     1.3430 ca         1 WPH      -0.151500
     30 C21         -6.1080     0.8160     0.2370 ca         1 WPH      -0.001000
     31 N24         -7.5200     0.9300     0.3580 ns         1 WPH      -0.167000
     32 C25         -8.5610     0.6610    -0.5200 c          1 WPH       0.674100
     33 O33         -8.4120     0.2390    -1.6610 o          1 WPH      -0.593100
     34 N26         -9.7930     0.9310     0.0610 ns         1 WPH      -0.168000
     35 C27        -11.1280     0.8200    -0.4190 ca         1 WPH      -0.009000
     36 C28        -11.4610     0.3610    -1.7130 ca         1 WPH      -0.148000
     37 C29        -12.8060     0.2790    -2.1150 ca         1 WPH      -0.083000
     38 C30        -13.8300     0.6530    -1.2310 ca         1 WPH      -0.135000
     39 C31        -13.5100     1.1100     0.0570 ca         1 WPH      -0.083000
     40 C32        -12.1650     1.1920     0.4580 ca         1 WPH      -0.148000
     41 H1          12.6630     2.8570     1.7030 h1         1 WPH       0.031367
     42 H2          11.7260     1.3680     1.5120 h1         1 WPH       0.031367
     43 H3          13.4490     1.3960     1.0620 h1         1 WPH       0.031367
     44 H5          14.1090     2.9370    -0.9840 h1         1 WPH       0.031367
     45 H6          12.7750     3.7380    -1.8500 h1         1 WPH       0.031367
     46 H7          13.1960     4.2510    -0.2030 h1         1 WPH       0.031367
     47 H8          11.6850     1.6370    -2.2470 h1         1 WPH       0.041200
     48 H9          12.8560     0.6740    -1.3560 h1         1 WPH       0.041200
     49 H10         10.7490    -0.5350    -1.6250 h1         1 WPH       0.035700
     50 H11         11.0330    -0.2200     0.1000 h1         1 WPH       0.035700
     51 H12          7.2540     2.1790    -0.6330 ha         1 WPH       0.125000
     52 H13          5.0780     1.1670    -0.0560 ha         1 WPH       0.121500
     53 H14          9.1640    -1.6790    -0.2130 ha         1 WPH       0.125000
     54 H15          7.0020    -2.6930     0.3530 ha         1 WPH       0.121500
     55 H16          3.1130     0.0690    -0.0120 ha         1 WPH       0.209000
     56 H17          0.7670    -5.0170     2.0980 h5         1 WPH       0.051100
     57 H18          0.7200    -0.0810     0.2050 hn         1 WPH       0.493000
     58 H19         -1.6960    -1.6160    -0.0260 h1         1 WPH       0.061200
     59 H20         -1.6050    -0.9800     1.6290 h1         1 WPH       0.061200
     60 H21         -1.3130     1.3370     0.7120 hc         1 WPH       0.050200
     61 H22         -1.4040     0.7070    -0.9260 hc         1 WPH       0.050200
     62 H23         -3.5650    -0.1180    -1.8630 ha         1 WPH       0.114000
     63 H24         -6.0110     0.0270    -1.7980 ha         1 WPH       0.129500
     64 H25         -3.3430     1.4200     2.1690 ha         1 WPH       0.114000
     65 H26         -5.8100     1.5710     2.2460 ha         1 WPH       0.129500
     66 H27         -7.8210     1.2750     1.2600 hn         1 WPH       0.146000
     67 H28         -9.7340     1.2740     1.0110 hn         1 WPH       0.145000
     68 H29        -10.6970     0.0620    -2.4240 ha         1 WPH       0.125500
     69 H30        -13.0540    -0.0760    -3.1130 ha         1 WPH       0.114000
     70 H31        -14.8710     0.5890    -1.5430 ha         1 WPH       0.116000
     71 H32        -14.3020     1.4010     0.7440 ha         1 WPH       0.114000
     72 H33        -11.9310     1.5480     1.4590 ha         1 WPH       0.125500
@<TRIPOS>BOND
     1     1     2 1   
     2     1    41 1   
     3     1    42 1   
     4     1    43 1   
     5     2     3 1   
     6     2     4 1   
     7     3    44 1   
     8     3    45 1   
     9     3    46 1   
    10     4     5 1   
    11     4    47 1   
    12     4    48 1   
    13     5     6 1   
    14     5    49 1   
    15     5    50 1   
    16     6     7 1   
    17     7     8 ar  
    18     7    10 ar  
    19     8     9 ar  
    20     8    51 1   
    21     9    12 ar  
    22     9    52 1   
    23    10    11 ar  
    24    10    53 1   
    25    11    12 ar  
    26    11    54 1   
    27    12    13 1   
    28    13    14 1   
    29    13    15 2   
    30    14    17 1   
    31    15    16 1   
    32    15    55 1   
    33    16    17 ar  
    34    16    21 ar  
    35    17    18 ar  
    36    18    19 ar  
    37    19    20 ar  
    38    19    56 1   
    39    20    21 ar  
    40    21    22 1   
    41    22    23 1   
    42    22    57 1   
    43    23    24 1   
    44    23    58 1   
    45    23    59 1   
    46    24    25 1   
    47    24    60 1   
    48    24    61 1   
    49    25    26 ar  
    50    25    28 ar  
    51    26    27 ar  
    52    26    62 1   
    53    27    30 ar  
    54    27    63 1   
    55    28    29 ar  
    56    28    64 1   
    57    29    30 ar  
    58    29    65 1   
    59    30    31 1   
    60    31    32 1   
    61    31    66 1   
    62    32    33 2   
    63    32    34 1   
    64    34    35 1   
    65    34    67 1   
    66    35    36 ar  
    67    35    40 ar  
    68    36    37 ar  
    69    36    68 1   
    70    37    38 ar  
    71    37    69 1   
    72    38    39 ar  
    73    38    70 1   
    74    39    40 ar  
    75    39    71 1   
    76    40    72 1   
@<TRIPOS>SUBSTRUCTURE
     1 WPH         1 TEMP              0 ****  ****    0 ROOT
