@<TRIPOS>MOLECULE
WPH
   72    76     1     0     0
SMALL
abcg2


@<TRIPOS>ATOM
      1 C35         12.5740     1.4160     1.3320 c3         1 WPH       0.146100
      2 N36         12.4010     1.7880    -0.0570 n3         1 WPH      -0.695600
      3 C39         13.5670     2.4930    -0.5470 c3         1 WPH       0.146100
      4 C37         12.1160     0.6520    -0.9080 c3         1 WPH       0.164800
      5 C38         10.8410    -0.0870    -0.5760 c3         1 WPH       0.163600
      6 O34          9.7490     0.8130    -0.6510 os         1 WPH      -0.323100
      7 C9           8.5060     0.3380    -0.4550 ca         1 WPH       0.158100
      8 C10          7.4660     1.2680    -0.5480 ca         1 WPH      -0.178500
      9 C11          6.1580     0.8720    -0.3700 ca         1 WPH      -0.046000
     10 C8           8.1980    -0.9900    -0.1740 ca         1 WPH      -0.178500
     11 C7           6.8780    -1.3760     0.0020 ca         1 WPH      -0.046000
     12 C6           5.8340    -0.4600    -0.0930 ca         1 WPH      -0.080800
     13 C2           4.4510    -0.8620     0.0820 cc         1 WPH       0.091900
     14 O3           4.2170    -2.1910     0.2670 os         1 WPH      -0.276400
     15 C1           3.2860    -0.1620     0.0940 cd         1 WPH      -0.206200
     16 C5           2.2550    -1.1290     0.2990 ca         1 WPH      -0.277800
     17 C4           2.8920    -2.3540     0.3950 ca         1 WPH       0.287300
     18 N12          2.3350    -3.5320     0.5770 nb         1 WPH      -0.199000
     19 C13          1.0180    -3.4470     0.6640 ca         1 WPH       0.180900
     20 N14          0.2630    -2.3570     0.5960 nb         1 WPH      -0.284000
     21 C15          0.8510    -1.1790     0.4110 ca         1 WPH       0.432900
     22 N40          0.0850    -0.0760     0.3200 nu         1 WPH      -0.923100
     23 C16         -1.3500    -0.0810     0.4970 c3         1 WPH       0.228800
     24 C17         -1.9510     1.2180    -0.0330 c3         1 WPH      -0.042100
     25 C18         -3.4470     1.2210     0.1020 ca         1 WPH      -0.112300
     26 C23         -4.2540     0.6840    -0.8930 ca         1 WPH      -0.074000
     27 C22         -5.6340     0.6300    -0.7830 ca         1 WPH      -0.151500
     28 C19         -4.0750     1.7130     1.2390 ca         1 WPH      -0.074000
     29 C20         -5.4510     1.6660     1.3720 ca         1 WPH      -0.151500
     30 C21         -6.2520     1.1250     0.3660 ca         1 WPH      -0.001000
     31 N24         -7.6330     1.1450     0.5750 ns         1 WPH      -0.167000
     32 C25         -8.6090     0.5030    -0.1530 c          1 WPH       0.674100
     33 O33         -8.3850    -0.2130    -1.1010 o          1 WPH      -0.593100
     34 N26         -9.8690     0.7720     0.3290 ns         1 WPH      -0.168000
     35 C27        -11.0870     0.2870    -0.1620 ca         1 WPH      -0.009000
     36 C28        -11.2110    -0.8710    -0.9270 ca         1 WPH      -0.148000
     37 C29        -12.4690    -1.2870    -1.3360 ca         1 WPH      -0.083000
     38 C30        -13.6120    -0.5810    -0.9950 ca         1 WPH      -0.135000
     39 C31        -13.4860     0.5670    -0.2280 ca         1 WPH      -0.083000
     40 C32        -12.2370     0.9990     0.1820 ca         1 WPH      -0.148000
     41 H1          12.8490     2.2950     1.9160 h1         1 WPH       0.031367
     42 H2          11.6480     1.0300     1.7590 h1         1 WPH       0.031367
     43 H3          13.3570     0.6580     1.4850 h1         1 WPH       0.031367
     44 H5          14.4830     1.8830    -0.5420 h1         1 WPH       0.031367
     45 H6          13.4030     2.8290    -1.5730 h1         1 WPH       0.031367
     46 H7          13.7590     3.3770     0.0630 h1         1 WPH       0.031367
     47 H8          12.0600     1.0010    -1.9430 h1         1 WPH       0.041200
     48 H9          12.9230    -0.1010    -0.8840 h1         1 WPH       0.041200
     49 H10         10.7260    -0.9010    -1.3000 h1         1 WPH       0.035700
     50 H11         10.8910    -0.5470     0.4170 h1         1 WPH       0.035700
     51 H12          7.6930     2.3030    -0.7690 ha         1 WPH       0.125000
     52 H13          5.3770     1.6160    -0.4570 ha         1 WPH       0.121500
     53 H14          8.9690    -1.7420    -0.0910 ha         1 WPH       0.125000
     54 H15          6.6730    -2.4170     0.2140 ha         1 WPH       0.121500
     55 H16          3.1860     0.9040    -0.0270 ha         1 WPH       0.209000
     56 H17          0.4860    -4.3800     0.8150 h5         1 WPH       0.051100
     57 H18          0.5510     0.8140     0.3320 hn         1 WPH       0.493000
     58 H19         -1.7700    -0.9320    -0.0390 h1         1 WPH       0.061200
     59 H20         -1.6200    -0.2160     1.5510 h1         1 WPH       0.061200
     60 H21         -1.5270     2.0700     0.5090 hc         1 WPH       0.050200
     61 H22         -1.6700     1.3420    -1.0820 hc         1 WPH       0.050200
     62 H23         -3.7980     0.2930    -1.7950 ha         1 WPH       0.114000
     63 H24         -6.2130     0.2040    -1.5850 ha         1 WPH       0.129500
     64 H25         -3.4880     2.1460     2.0410 ha         1 WPH       0.114000
     65 H26         -5.9070     2.0600     2.2730 ha         1 WPH       0.129500
     66 H27         -7.9120     1.5930     1.4320 hn         1 WPH       0.146000
     67 H28         -9.9630     1.5190     0.9970 hn         1 WPH       0.145000
     68 H29        -10.3430    -1.4450    -1.2080 ha         1 WPH       0.125500
     69 H30        -12.5500    -2.1880    -1.9310 ha         1 WPH       0.114000
     70 H31        -14.5870    -0.9210    -1.3180 ha         1 WPH       0.116000
     71 H32        -14.3630     1.1370     0.0510 ha         1 WPH       0.114000
     72 H33        -12.1570     1.9030     0.7760 ha         1 WPH       0.125500
@<TRIPOS>BOND
     1     1     2 1   
     2     1    41 1   
     3     1    42 1   
     4     1    43 1   
     5     2     3 1   
     6     2     4 1   
     7     3    44 1   
     8     3    45 1   
     9     3    46 1   
    10     4     5 1   
    11     4    47 1   
    12     4    48 1   
    13     5     6 1   
    14     5    49 1   
    15     5    50 1   
    16     6     7 1   
    17     7     8 ar  
    18     7    10 ar  
    19     8     9 ar  
    20     8    51 1   
    21     9    12 ar  
    22     9    52 1   
    23    10    11 ar  
    24    10    53 1   
    25    11    12 ar  
    26    11    54 1   
    27    12    13 1   
    28    13    14 1   
    29    13    15 2   
    30    14    17 1   
    31    15    16 1   
    32    15    55 1   
    33    16    17 ar  
    34    16    21 ar  
    35    17    18 ar  
    36    18    19 ar  
    37    19    20 ar  
    38    19    56 1   
    39    20    21 ar  
    40    21    22 1   
    41    22    23 1   
    42    22    57 1   
    43    23    24 1   
    44    23    58 1   
    45    23    59 1   
    46    24    25 1   
    47    24    60 1   
    48    24    61 1   
    49    25    26 ar  
    50    25    28 ar  
    51    26    27 ar  
    52    26    62 1   
    53    27    30 ar  
    54    27    63 1   
    55    28    29 ar  
    56    28    64 1   
    57    29    30 ar  
    58    29    65 1   
    59    30    31 1   
    60    31    32 1   
    61    31    66 1   
    62    32    33 2   
    63    32    34 1   
    64    34    35 1   
    65    34    67 1   
    66    35    36 ar  
    67    35    40 ar  
    68    36    37 ar  
    69    36    68 1   
    70    37    38 ar  
    71    37    69 1   
    72    38    39 ar  
    73    38    70 1   
    74    39    40 ar  
    75    39    71 1   
    76    40    72 1   
@<TRIPOS>SUBSTRUCTURE
     1 WPH         1 TEMP              0 ****  ****    0 ROOT
