@<TRIPOS>MOLECULE
WPI
   89    91     1     0     0
SMALL
No Charge or Current Charge


@<TRIPOS>ATOM
      1 C1          -7.5000    -3.1180    -0.7740 ca         1 WPI       0.027100
      2 C2          -6.9620    -2.2600    -1.7630 ca         1 WPI       0.156350
      3 C3          -7.5880    -2.6520     0.5750 ca         1 WPI       0.156350
      4 O4          -7.9070    -4.3830    -1.2060 os         1 WPI      -0.327600
      5 C5          -6.5240    -0.9620    -1.4230 ca         1 WPI      -0.219250
      6 O6          -6.8780    -2.7320    -3.0640 os         1 WPI      -0.324600
      7 C7          -7.1410    -1.3470     0.8850 ca         1 WPI      -0.219250
      8 O8          -8.1050    -3.4650     1.5710 os         1 WPI      -0.324600
      9 C9          -8.4800    -5.4010    -0.3670 c3         1 WPI       0.148900
     10 C10         -6.6170    -0.4990    -0.1010 ca         1 WPI       0.020700
     11 C11         -6.3510    -1.9430    -4.1460 c3         1 WPI       0.145900
     12 C12         -8.2190    -3.0530     2.9450 c3         1 WPI       0.145900
     13 C13         -6.1590     0.8660     0.2880 ce         1 WPI      -0.170200
     14 C14         -5.9590     1.9100    -0.5490 c2         1 WPI      -0.195700
     15 C16         -5.4980     3.2880    -0.1250 c3         1 WPI      -0.045200
     16 C18         -3.9700     3.3520     0.0830 c3         1 WPI      -0.094900
     17 C19         -3.4820     4.7590     0.5140 c3         1 WPI       0.176300
     18 N20         -2.0150     4.9000     0.7120 n3         1 WPI      -0.734600
     19 C21         -1.2270     4.7310    -0.5470 c3         1 WPI       0.161300
     20 C22         -1.5080     4.1440     1.8880 c3         1 WPI       0.177800
     21 C23          0.2160     5.3080    -0.4870 c3         1 WPI       0.161300
     22 C24         -0.0200     4.3560     2.2520 c3         1 WPI      -0.084400
     23 N25          1.2900     4.4050     0.0280 n3         1 WPI      -0.734600
     24 C26          0.9400     3.6560     1.2660 c3         1 WPI       0.177800
     25 C27          1.8770     3.5420    -1.0300 c3         1 WPI       0.176300
     26 C28          3.1670     2.7950    -0.6160 c3         1 WPI      -0.094900
     27 C29          3.8100     2.0160    -1.7820 c3         1 WPI      -0.045200
     28 C30          5.0680     1.2870    -1.3590 c2         1 WPI      -0.195700
     29 C31          5.0970     0.0930    -0.7250 ce         1 WPI      -0.170200
     30 C33          6.3200    -0.6410    -0.2850 ca         1 WPI       0.020700
     31 C35          6.1950    -1.6530     0.6770 ca         1 WPI      -0.219250
     32 C36          7.5870    -0.3550    -0.8170 ca         1 WPI      -0.219250
     33 C37          7.3190    -2.3830     1.1310 ca         1 WPI       0.156350
     34 C38          8.7260    -1.0660    -0.3840 ca         1 WPI       0.156350
     35 C39          8.6090    -2.0840     0.5930 ca         1 WPI       0.027100
     36 O40          7.1630    -3.3750     2.0860 os         1 WPI      -0.324600
     37 O41          9.9850    -0.7950    -0.8990 os         1 WPI      -0.324600
     38 O42          9.7920    -2.7310     0.9580 os         1 WPI      -0.327600
     39 C43          5.8920    -3.7210     2.6650 c3         1 WPI       0.145900
     40 C44         10.2180     0.2190    -1.8920 c3         1 WPI       0.145900
     41 C45          9.8930    -3.7880     1.9290 c3         1 WPI       0.148900
     42 H1          -6.0990    -0.3130    -2.1790 ha         1 WPI       0.119250
     43 H2          -7.1980    -0.9670     1.9000 ha         1 WPI       0.119250
     44 H3          -8.7110    -6.2930    -0.9620 h1         1 WPI       0.033033
     45 H4          -7.7790    -5.6990     0.4230 h1         1 WPI       0.033033
     46 H5          -9.4150    -5.0530     0.0900 h1         1 WPI       0.033033
     47 H6          -6.9420    -1.0290    -4.2860 h1         1 WPI       0.041200
     48 H7          -5.3070    -1.6650    -3.9540 h1         1 WPI       0.041200
     49 H8          -6.3840    -2.5140    -5.0820 h1         1 WPI       0.041200
     50 H9          -8.6540    -3.8610     3.5470 h1         1 WPI       0.041200
     51 H10         -7.2340    -2.8120     3.3640 h1         1 WPI       0.041200
     52 H11         -8.8690    -2.1740     3.0370 h1         1 WPI       0.041200
     53 H12         -5.9930     1.0010     1.3580 ha         1 WPI       0.169500
     54 H14         -6.1360     1.8180    -1.6210 ha         1 WPI       0.168500
     55 H16         -5.7880     4.0260    -0.8830 hc         1 WPI       0.045950
     56 H17         -6.0020     3.5830     0.8040 hc         1 WPI       0.045950
     57 H18         -3.6890     2.6140     0.8430 hc         1 WPI       0.046700
     58 H19         -3.4760     3.0590    -0.8500 hc         1 WPI       0.046700
     59 H20         -3.8130     5.4800    -0.2460 h1         1 WPI       0.037950
     60 H21         -4.0010     5.0310     1.4430 h1         1 WPI       0.037950
     61 H23         -1.1830     3.6750    -0.8460 h1         1 WPI       0.043950
     62 H24         -1.7420     5.2650    -1.3570 h1         1 WPI       0.043950
     63 H25         -2.1000     4.4300     2.7690 h1         1 WPI       0.028450
     64 H26         -1.6670     3.0680     1.7420 h1         1 WPI       0.028450
     65 H27          0.4820     5.6400    -1.5000 h1         1 WPI       0.043950
     66 H28          0.1840     6.2240     0.1180 h1         1 WPI       0.043950
     67 H29          0.2150     5.4230     2.3460 hc         1 WPI       0.052700
     68 H30          0.1410     3.9160     3.2420 hc         1 WPI       0.052700
     69 H32          1.8680     3.4410     1.8120 h1         1 WPI       0.028450
     70 H33          0.5030     2.6820     1.0050 h1         1 WPI       0.028450
     71 H34          1.1350     2.8030    -1.3640 h1         1 WPI       0.037950
     72 H35          2.1240     4.1610    -1.9040 h1         1 WPI       0.037950
     73 H36          3.8910     3.5190    -0.2260 hc         1 WPI       0.046700
     74 H37          2.9430     2.0910     0.1940 hc         1 WPI       0.046700
     75 H38          3.0810     1.3010    -2.1850 hc         1 WPI       0.045950
     76 H39          4.0420     2.7130    -2.5970 hc         1 WPI       0.045950
     77 H40          5.9860     1.8240    -1.5980 ha         1 WPI       0.168500
     78 H42          4.1580    -0.4040    -0.4780 ha         1 WPI       0.169500
     79 H44          5.2050    -1.8580     1.0710 ha         1 WPI       0.119250
     80 H45          7.6780     0.4130    -1.5760 ha         1 WPI       0.119250
     81 H46          5.1920    -4.0650     1.8930 h1         1 WPI       0.041200
     82 H47          6.0160    -4.5310     3.3940 h1         1 WPI       0.041200
     83 H48          5.4530    -2.8610     3.1860 h1         1 WPI       0.041200
     84 H49          9.6560     0.0040    -2.8100 h1         1 WPI       0.041200
     85 H50          9.9200     1.2070    -1.5180 h1         1 WPI       0.041200
     86 H51         11.2840     0.2610    -2.1490 h1         1 WPI       0.041200
     87 H52          9.5580    -3.4460     2.9170 h1         1 WPI       0.033033
     88 H53          9.2980    -4.6580     1.6260 h1         1 WPI       0.033033
     89 H54         10.9360    -4.1130     2.0240 h1         1 WPI       0.033033
@<TRIPOS>BOND
     1     1     2 ar  
     2     1     3 ar  
     3     1     4 1   
     4     2     5 ar  
     5     2     6 1   
     6     3     7 ar  
     7     3     8 1   
     8     4     9 1   
     9     5    10 ar  
    10     5    42 1   
    11     6    11 1   
    12     7    10 ar  
    13     7    43 1   
    14     8    12 1   
    15     9    44 1   
    16     9    45 1   
    17     9    46 1   
    18    10    13 1   
    19    11    47 1   
    20    11    48 1   
    21    11    49 1   
    22    12    50 1   
    23    12    51 1   
    24    12    52 1   
    25    13    14 2   
    26    13    53 1   
    27    14    15 1   
    28    14    54 1   
    29    15    16 1   
    30    15    55 1   
    31    15    56 1   
    32    16    17 1   
    33    16    57 1   
    34    16    58 1   
    35    17    18 1   
    36    17    59 1   
    37    17    60 1   
    38    18    19 1   
    39    18    20 1   
    40    19    21 1   
    41    19    61 1   
    42    19    62 1   
    43    20    22 1   
    44    20    63 1   
    45    20    64 1   
    46    21    23 1   
    47    21    65 1   
    48    21    66 1   
    49    22    24 1   
    50    22    67 1   
    51    22    68 1   
    52    23    24 1   
    53    23    25 1   
    54    24    69 1   
    55    24    70 1   
    56    25    26 1   
    57    25    71 1   
    58    25    72 1   
    59    26    27 1   
    60    26    73 1   
    61    26    74 1   
    62    27    28 1   
    63    27    75 1   
    64    27    76 1   
    65    28    29 2   
    66    28    77 1   
    67    29    30 1   
    68    29    78 1   
    69    30    31 ar  
    70    30    32 ar  
    71    31    33 ar  
    72    31    79 1   
    73    32    34 ar  
    74    32    80 1   
    75    33    35 ar  
    76    33    36 1   
    77    34    35 ar  
    78    34    37 1   
    79    35    38 1   
    80    36    39 1   
    81    37    40 1   
    82    38    41 1   
    83    39    81 1   
    84    39    82 1   
    85    39    83 1   
    86    40    84 1   
    87    40    85 1   
    88    40    86 1   
    89    41    87 1   
    90    41    88 1   
    91    41    89 1   
@<TRIPOS>SUBSTRUCTURE
     1 WPI         1 TEMP              0 ****  ****    0 ROOT
