@<TRIPOS>MOLECULE
WPI
   89    91     1     0     0
SMALL
abcg2


@<TRIPOS>ATOM
      1 C1          -8.9430    -2.6450    -0.3250 ca         1 WPI       0.027100
      2 C2          -7.7800    -2.3840    -1.0600 ca         1 WPI       0.156350
      3 C3          -9.4380    -1.6750     0.5470 ca         1 WPI       0.156350
      4 O4          -9.5860    -3.8340    -0.4710 os         1 WPI      -0.327600
      5 C5          -7.1320    -1.1610    -0.9360 ca         1 WPI      -0.219250
      6 O6          -7.3690    -3.3820    -1.8620 os         1 WPI      -0.324600
      7 C7          -8.7850    -0.4500     0.6680 ca         1 WPI      -0.219250
      8 O8         -10.5530    -2.0100     1.2200 os         1 WPI      -0.324600
      9 C9          -9.1630    -4.8400     0.4410 c3         1 WPI       0.148900
     10 C10         -7.6350    -0.1870    -0.0730 ca         1 WPI       0.020700
     11 C11         -6.1990    -3.1890    -2.6310 c3         1 WPI       0.145900
     12 C12        -11.1040    -1.0710     2.1220 c3         1 WPI       0.145900
     13 C13         -6.9950     1.1230     0.0930 ce         1 WPI      -0.170200
     14 C14         -5.9700     1.6150    -0.6050 c2         1 WPI      -0.195700
     15 C16         -5.3590     2.9540    -0.3570 c3         1 WPI      -0.045200
     16 C18         -3.8750     2.8610     0.0060 c3         1 WPI      -0.094900
     17 C19         -3.3090     4.2410     0.3530 c3         1 WPI       0.176300
     18 N20         -1.8840     4.3300     0.6090 n3         1 WPI      -0.734600
     19 C21         -1.0700     4.0690    -0.5640 c3         1 WPI       0.161300
     20 C22         -1.4780     3.6020     1.7930 c3         1 WPI       0.177800
     21 C23          0.3300     4.6780    -0.4460 c3         1 WPI       0.161300
     22 C24         -0.0330     3.8330     2.2240 c3         1 WPI      -0.084400
     23 N25          1.3790     3.8590     0.1360 n3         1 WPI      -0.734600
     24 C26          1.0150     3.1490     1.3540 c3         1 WPI       0.177800
     25 C27          2.0070     2.9710    -0.8230 c3         1 WPI       0.176300
     26 C28          3.3490     2.4220    -0.3520 c3         1 WPI      -0.094900
     27 C29          4.0280     1.6050    -1.4530 c3         1 WPI      -0.045200
     28 C30          5.3940     1.1410    -1.0690 c2         1 WPI      -0.195700
     29 C31          5.7490    -0.1400    -0.9530 ce         1 WPI      -0.170200
     30 C33          7.0740    -0.6640    -0.6040 ca         1 WPI       0.020700
     31 C35          7.2080    -2.0420    -0.4420 ca         1 WPI      -0.219250
     32 C36          8.1880     0.1610    -0.4470 ca         1 WPI      -0.219250
     33 C37          8.4440    -2.5980    -0.1230 ca         1 WPI       0.156350
     34 C38          9.4230    -0.3890    -0.1250 ca         1 WPI       0.156350
     35 C39          9.5600    -1.7740     0.0300 ca         1 WPI       0.027100
     36 O40          8.6650    -3.9130     0.0470 os         1 WPI      -0.324600
     37 O41         10.5510     0.3220     0.0470 os         1 WPI      -0.324600
     38 O42         10.7780    -2.3110     0.3030 os         1 WPI      -0.327600
     39 C43          7.5750    -4.8030    -0.0940 c3         1 WPI       0.145900
     40 C44         10.4950     1.7250    -0.1190 c3         1 WPI       0.145900
     41 C45         11.0580    -2.4600     1.6880 c3         1 WPI       0.148900
     42 H1          -6.2310    -0.9610    -1.5000 ha         1 WPI       0.119250
     43 H2          -9.1620     0.3140     1.3340 ha         1 WPI       0.119250
     44 H3          -9.7050    -5.7500     0.1890 h1         1 WPI       0.033033
     45 H4          -8.0910    -5.0370     0.3570 h1         1 WPI       0.033033
     46 H5          -9.3910    -4.5710     1.4750 h1         1 WPI       0.033033
     47 H6          -6.3010    -2.3520    -3.3270 h1         1 WPI       0.041200
     48 H7          -5.3200    -3.0190    -2.0040 h1         1 WPI       0.041200
     49 H8          -6.0520    -4.1030    -3.2010 h1         1 WPI       0.041200
     50 H9         -11.9890    -1.5370     2.5480 h1         1 WPI       0.041200
     51 H10        -10.4120    -0.8260     2.9320 h1         1 WPI       0.041200
     52 H11        -11.4010    -0.1470     1.6200 h1         1 WPI       0.041200
     53 H12         -7.4280     1.7470     0.8710 ha         1 WPI       0.169500
     54 H14         -5.5180     1.0280    -1.4010 ha         1 WPI       0.168500
     55 H16         -5.4590     3.5760    -1.2540 hc         1 WPI       0.045950
     56 H17         -5.9060     3.4680     0.4390 hc         1 WPI       0.045950
     57 H18         -3.7540     2.1770     0.8510 hc         1 WPI       0.046700
     58 H19         -3.3230     2.4250    -0.8320 hc         1 WPI       0.046700
     59 H20         -3.5440     4.9300    -0.4660 h1         1 WPI       0.037950
     60 H21         -3.8380     4.6230     1.2320 h1         1 WPI       0.037950
     61 H23         -0.9960     2.9960    -0.8110 h1         1 WPI       0.043950
     62 H24         -1.5700     4.5400    -1.4150 h1         1 WPI       0.043950
     63 H25         -2.1360     3.9130     2.6100 h1         1 WPI       0.028450
     64 H26         -1.6170     2.5130     1.6840 h1         1 WPI       0.028450
     65 H27          0.6710     4.9650    -1.4420 h1         1 WPI       0.043950
     66 H28          0.2320     5.6110     0.1170 h1         1 WPI       0.043950
     67 H29          0.1750     4.9010     2.3330 hc         1 WPI       0.052700
     68 H30          0.0630     3.4070     3.2260 hc         1 WPI       0.052700
     69 H32          1.9190     3.0030     1.9530 h1         1 WPI       0.028450
     70 H33          0.6450     2.1350     1.1210 h1         1 WPI       0.028450
     71 H34          1.3540     2.1210    -1.0940 h1         1 WPI       0.037950
     72 H35          2.1790     3.5320    -1.7470 h1         1 WPI       0.037950
     73 H36          3.9890     3.2590    -0.0570 hc         1 WPI       0.046700
     74 H37          3.2260     1.7900     0.5310 hc         1 WPI       0.046700
     75 H38          3.4030     0.7480    -1.7190 hc         1 WPI       0.045950
     76 H39          4.1050     2.2270    -2.3520 hc         1 WPI       0.045950
     77 H40          6.1200     1.9280    -0.8800 ha         1 WPI       0.168500
     78 H42          4.9920    -0.8980    -1.1350 ha         1 WPI       0.169500
     79 H44          6.3350    -2.6690    -0.5660 ha         1 WPI       0.119250
     80 H45          8.0860     1.2290    -0.5800 ha         1 WPI       0.119250
     81 H46          7.1440    -4.7670    -1.0980 h1         1 WPI       0.041200
     82 H47          7.9680    -5.8010     0.0810 h1         1 WPI       0.041200
     83 H48          6.7870    -4.6010     0.6350 h1         1 WPI       0.041200
     84 H49         10.1930     2.0050    -1.1310 h1         1 WPI       0.041200
     85 H50          9.8130     2.1950     0.5950 h1         1 WPI       0.041200
     86 H51         11.5000     2.0960     0.0620 h1         1 WPI       0.041200
     87 H52         11.0440    -1.5010     2.2110 h1         1 WPI       0.033033
     88 H53         10.3520    -3.1370     2.1750 h1         1 WPI       0.033033
     89 H54         12.0570    -2.8840     1.7690 h1         1 WPI       0.033033
@<TRIPOS>BOND
     1     1     2 ar  
     2     1     3 ar  
     3     1     4 1   
     4     2     5 ar  
     5     2     6 1   
     6     3     7 ar  
     7     3     8 1   
     8     4     9 1   
     9     5    10 ar  
    10     5    42 1   
    11     6    11 1   
    12     7    10 ar  
    13     7    43 1   
    14     8    12 1   
    15     9    44 1   
    16     9    45 1   
    17     9    46 1   
    18    10    13 1   
    19    11    47 1   
    20    11    48 1   
    21    11    49 1   
    22    12    50 1   
    23    12    51 1   
    24    12    52 1   
    25    13    14 2   
    26    13    53 1   
    27    14    15 1   
    28    14    54 1   
    29    15    16 1   
    30    15    55 1   
    31    15    56 1   
    32    16    17 1   
    33    16    57 1   
    34    16    58 1   
    35    17    18 1   
    36    17    59 1   
    37    17    60 1   
    38    18    19 1   
    39    18    20 1   
    40    19    21 1   
    41    19    61 1   
    42    19    62 1   
    43    20    22 1   
    44    20    63 1   
    45    20    64 1   
    46    21    23 1   
    47    21    65 1   
    48    21    66 1   
    49    22    24 1   
    50    22    67 1   
    51    22    68 1   
    52    23    24 1   
    53    23    25 1   
    54    24    69 1   
    55    24    70 1   
    56    25    26 1   
    57    25    71 1   
    58    25    72 1   
    59    26    27 1   
    60    26    73 1   
    61    26    74 1   
    62    27    28 1   
    63    27    75 1   
    64    27    76 1   
    65    28    29 2   
    66    28    77 1   
    67    29    30 1   
    68    29    78 1   
    69    30    31 ar  
    70    30    32 ar  
    71    31    33 ar  
    72    31    79 1   
    73    32    34 ar  
    74    32    80 1   
    75    33    35 ar  
    76    33    36 1   
    77    34    35 ar  
    78    34    37 1   
    79    35    38 1   
    80    36    39 1   
    81    37    40 1   
    82    38    41 1   
    83    39    81 1   
    84    39    82 1   
    85    39    83 1   
    86    40    84 1   
    87    40    85 1   
    88    40    86 1   
    89    41    87 1   
    90    41    88 1   
    91    41    89 1   
@<TRIPOS>SUBSTRUCTURE
     1 WPI         1 TEMP              0 ****  ****    0 ROOT
