@<TRIPOS>MOLECULE
WPJ
   52    53     1     0     0
SMALL
bcc


@<TRIPOS>ATOM
      1 C01        -22.7600    21.0730    -5.8270 c3         1 WPJ      -0.084100
      2 C02        -22.3640    19.9040    -4.9290 c3         1 WPJ      -0.132700
      3 C03        -20.8890    19.6320    -4.9750 ca         1 WPJ       0.516600
      4 C05        -18.7910    20.3730    -4.5030 ca         1 WPJ       0.921900
      5 C08        -18.9570    18.3410    -5.4960 ca         1 WPJ       0.716200
      6 C10        -20.3630    18.4770    -5.5140 ca         1 WPJ      -0.249500
      7 C12        -21.3660    17.5500    -7.4310 c3         1 WPJ       0.129400
      8 C13        -22.4070    16.5180    -7.8110 c3         1 WPJ      -0.075400
      9 C14        -23.7670    16.7370    -7.1780 c3         1 WPJ       0.148400
     10 C16        -25.3800    18.4960    -7.0710 ca         1 WPJ       0.128100
     11 C17        -26.1900    17.8110    -6.1710 ca         1 WPJ      -0.236000
     12 C18        -27.3240    18.4450    -5.6700 ca         1 WPJ      -0.109000
     13 C19        -27.6500    19.7340    -6.0490 ca         1 WPJ      -0.168000
     14 C20        -26.8440    20.4240    -6.9590 ca         1 WPJ      -0.005300
     15 C21        -27.1970    21.8310    -7.3630 c3         1 WPJ      -0.006100
     16 C22        -28.3590    21.8780    -8.3560 c3         1 WPJ      -0.261700
     17 C23        -28.9990    23.2410    -8.4490 c3         1 WPJ       0.421900
     18 C26        -28.0110    21.4340    -9.8090 c          1 WPJ       0.941600
     19 C29        -25.7200    19.7910    -7.4650 ca         1 WPJ      -0.130000
     20 F24        -29.3660    23.7160    -7.2180 f          1 WPJ      -0.275800
     21 F25        -28.1140    24.1600    -8.9490 f          1 WPJ      -0.275800
     22 N04        -20.1010    20.5870    -4.4630 nb         1 WPJ      -0.800000
     23 N06        -17.9900    21.3230    -3.9510 nv         1 WPJ      -0.942500
     24 N07        -18.1820    19.2930    -4.9920 nb         1 WPJ      -0.856000
     25 N09        -18.3600    17.2500    -6.0200 nv         1 WPJ      -0.952500
     26 O11        -21.1350    17.4730    -6.0240 os         1 WPJ      -0.332900
     27 O15        -24.2510    17.9950    -7.6130 os         1 WPJ      -0.329900
     28 O27        -29.0000    21.2680   -10.5480 o          1 WPJ      -0.822800
     29 O28        -26.8120    21.3070   -10.1080 o          1 WPJ      -0.822800
     30 H1         -23.8290    21.2710    -5.7460 hc         1 WPJ       0.043700
     31 H2         -22.2240    21.9810    -5.5520 hc         1 WPJ       0.043700
     32 H3         -22.5460    20.8570    -6.8740 hc         1 WPJ       0.043700
     33 H4         -22.6300    20.1380    -3.8950 hc         1 WPJ       0.063200
     34 H5         -22.9290    19.0160    -5.2060 hc         1 WPJ       0.063200
     35 H6         -20.4370    17.3540    -7.9780 h1         1 WPJ       0.041200
     36 H7         -21.6970    18.5570    -7.7030 h1         1 WPJ       0.041200
     37 H8         -22.5020    16.5130    -8.9000 hc         1 WPJ       0.052200
     38 H9         -22.0570    15.5210    -7.5290 hc         1 WPJ       0.052200
     39 H10        -23.6910    16.7080    -6.0860 h1         1 WPJ       0.033700
     40 H11        -24.4520    15.9380    -7.4810 h1         1 WPJ       0.033700
     41 H12        -25.9600    16.8030    -5.8520 ha         1 WPJ       0.116000
     42 H13        -27.9510    17.9160    -4.9630 ha         1 WPJ       0.110000
     43 H14        -28.5300    20.2150    -5.6380 ha         1 WPJ       0.126000
     44 H15        -26.3220    22.3250    -7.7840 hc         1 WPJ       0.044700
     45 H16        -27.4650    22.3800    -6.4570 hc         1 WPJ       0.044700
     46 H17        -29.1540    21.2070    -8.0070 hc         1 WPJ       0.053700
     47 H18        -29.8880    23.2440    -9.0800 h2         1 WPJ       0.068700
     48 H19        -25.0830    20.3070    -8.1730 ha         1 WPJ       0.167000
     49 H20        -17.0160    21.3060    -4.1990 hn         1 WPJ       0.423800
     50 H21        -18.3870    22.2380    -3.8200 hn         1 WPJ       0.423800
     51 H22        -17.3860    17.1080    -5.8090 hn         1 WPJ       0.428300
     52 H23        -18.9040    16.4150    -6.1590 hn         1 WPJ       0.428300
@<TRIPOS>BOND
     1     1     2 1   
     2     1    30 1   
     3     1    31 1   
     4     1    32 1   
     5     2     3 1   
     6     2    33 1   
     7     2    34 1   
     8     3     6 ar  
     9     3    22 ar  
    10     4    22 ar  
    11     4    23 1   
    12     4    24 ar  
    13     5     6 ar  
    14     5    24 ar  
    15     5    25 1   
    16     6    26 1   
    17     7     8 1   
    18     7    26 1   
    19     7    35 1   
    20     7    36 1   
    21     8     9 1   
    22     8    37 1   
    23     8    38 1   
    24     9    27 1   
    25     9    39 1   
    26     9    40 1   
    27    10    11 ar  
    28    10    19 ar  
    29    10    27 1   
    30    11    12 ar  
    31    11    41 1   
    32    12    13 ar  
    33    12    42 1   
    34    13    14 ar  
    35    13    43 1   
    36    14    15 1   
    37    14    19 ar  
    38    15    16 1   
    39    15    44 1   
    40    15    45 1   
    41    16    17 1   
    42    16    18 1   
    43    16    46 1   
    44    17    20 1   
    45    17    21 1   
    46    17    47 1   
    47    18    28 1   
    48    18    29 1   
    49    19    48 1   
    50    23    49 1   
    51    23    50 1   
    52    25    51 1   
    53    25    52 1   
@<TRIPOS>SUBSTRUCTURE
     1 WPJ         1 TEMP              0 ****  ****    0 ROOT
