@<TRIPOS>MOLECULE
WPJ
   52    53     1     0     0
SMALL
No Charge or Current Charge


@<TRIPOS>ATOM
      1 C01        -22.9970    20.5050    -5.2000 c3         1 WPJ      -0.084100
      2 C02        -22.2190    19.5370    -4.2870 c3         1 WPJ      -0.132700
      3 C03        -20.7410    19.4460    -4.6590 ca         1 WPJ       0.188300
      4 C05        -18.6280    20.2890    -4.4340 ca         1 WPJ       0.395900
      5 C08        -18.8490    18.5080    -5.8140 ca         1 WPJ       0.387900
      6 C10        -20.2400    18.4750    -5.5560 ca         1 WPJ      -0.118900
      7 C12        -21.3520    17.5740    -7.5390 c3         1 WPJ       0.152600
      8 C13        -22.4570    16.5410    -7.8430 c3         1 WPJ      -0.075400
      9 C14        -23.7920    16.8290    -7.1250 c3         1 WPJ       0.171600
     10 C16        -25.4170    18.6830    -7.0700 ca         1 WPJ       0.128100
     11 C17        -26.1830    18.0790    -6.0490 ca         1 WPJ      -0.218000
     12 C18        -27.3050    18.7440    -5.5280 ca         1 WPJ      -0.091000
     13 C19        -27.6640    20.0100    -6.0190 ca         1 WPJ      -0.150000
     14 C20        -26.9070    20.6200    -7.0370 ca         1 WPJ      -0.005300
     15 C21        -27.2960    21.9960    -7.5630 c3         1 WPJ      -0.006100
     16 C22        -28.4740    21.9400    -8.5760 c3         1 WPJ      -0.261700
     17 C23        -29.0330    23.3310    -8.9580 c3         1 WPJ       0.179300
     18 C26        -28.1090    21.1540    -9.8460 c          1 WPJ       0.731000
     19 C29        -25.7860    19.9470    -7.5580 ca         1 WPJ      -0.112000
     20 F24        -29.6170    23.9060    -7.8810 f          1 WPJ      -0.154500
     21 F25        -28.0460    24.1620    -9.3660 f          1 WPJ      -0.154500
     22 N04        -19.9230    20.3630    -4.0990 nb         1 WPJ      -0.274000
     23 N06        -17.8120    21.2090    -3.8720 nv         1 WPJ      -1.052900
     24 N07        -18.0390    19.4140    -5.2560 nb         1 WPJ      -0.330000
     25 N09        -18.2170    17.6000    -6.6080 nv         1 WPJ      -1.062900
     26 O11        -21.0850    17.5380    -6.1250 os         1 WPJ      -0.356100
     27 O15        -24.2960    18.0870    -7.6080 os         1 WPJ      -0.353100
     28 O27        -28.7790    20.1690   -10.1150 o          1 WPJ      -0.717500
     29 O28        -27.1740    21.5380   -10.5310 o          1 WPJ      -0.717500
     30 H1         -24.0600    20.5190    -4.9300 hc         1 WPJ       0.043700
     31 H2         -22.6050    21.5250    -5.1080 hc         1 WPJ       0.043700
     32 H3         -22.9130    20.1990    -6.2500 hc         1 WPJ       0.043700
     33 H4         -22.3270    19.8670    -3.2470 hc         1 WPJ       0.063200
     34 H5         -22.6860    18.5470    -4.3380 hc         1 WPJ       0.063200
     35 H6         -20.4530    17.3260    -8.1180 h1         1 WPJ       0.041200
     36 H7         -21.6870    18.5740    -7.8430 h1         1 WPJ       0.041200
     37 H8         -22.6310    16.5100    -8.9250 hc         1 WPJ       0.052200
     38 H9         -22.1040    15.5450    -7.5520 hc         1 WPJ       0.052200
     39 H10        -23.6240    16.8640    -6.0410 h1         1 WPJ       0.033700
     40 H11        -24.5040    16.0220    -7.3400 h1         1 WPJ       0.033700
     41 H12        -25.9250    17.1020    -5.6510 ha         1 WPJ       0.098000
     42 H13        -27.8960    18.2800    -4.7410 ha         1 WPJ       0.092000
     43 H14        -28.5330    20.5190    -5.6090 ha         1 WPJ       0.108000
     44 H15        -26.4300    22.4850    -8.0270 hc         1 WPJ       0.044700
     45 H16        -27.5790    22.6340    -6.7160 hc         1 WPJ       0.044700
     46 H17        -29.3010    21.4040    -8.0940 hc         1 WPJ       0.053700
     47 H18        -29.7790    23.2380    -9.7570 h2         1 WPJ       0.068700
     48 H19        -25.1920    20.4070    -8.3440 ha         1 WPJ       0.149000
     49 H20        -16.8780    21.3240    -4.2580 hn         1 WPJ       0.479000
     50 H21        -18.2280    22.0190    -3.4190 hn         1 WPJ       0.479000
     51 H22        -17.2040    17.5410    -6.5470 hn         1 WPJ       0.483500
     52 H23        -18.7100    16.7370    -6.8210 hn         1 WPJ       0.483500
@<TRIPOS>BOND
     1     1     2 1   
     2     1    30 1   
     3     1    31 1   
     4     1    32 1   
     5     2     3 1   
     6     2    33 1   
     7     2    34 1   
     8     3     6 ar  
     9     3    22 ar  
    10     4    22 ar  
    11     4    23 1   
    12     4    24 ar  
    13     5     6 ar  
    14     5    24 ar  
    15     5    25 1   
    16     6    26 1   
    17     7     8 1   
    18     7    26 1   
    19     7    35 1   
    20     7    36 1   
    21     8     9 1   
    22     8    37 1   
    23     8    38 1   
    24     9    27 1   
    25     9    39 1   
    26     9    40 1   
    27    10    11 ar  
    28    10    19 ar  
    29    10    27 1   
    30    11    12 ar  
    31    11    41 1   
    32    12    13 ar  
    33    12    42 1   
    34    13    14 ar  
    35    13    43 1   
    36    14    15 1   
    37    14    19 ar  
    38    15    16 1   
    39    15    44 1   
    40    15    45 1   
    41    16    17 1   
    42    16    18 1   
    43    16    46 1   
    44    17    20 1   
    45    17    21 1   
    46    17    47 1   
    47    18    28 1   
    48    18    29 1   
    49    19    48 1   
    50    23    49 1   
    51    23    50 1   
    52    25    51 1   
    53    25    52 1   
@<TRIPOS>SUBSTRUCTURE
     1 WPJ         1 TEMP              0 ****  ****    0 ROOT
