@<TRIPOS>MOLECULE
WPK
   15    16     1     0     0
SMALL
abcg2


@<TRIPOS>ATOM
      1 C1          17.8900    -2.0130   -20.0120 ca         1 WPK       0.090400
      2 C2          19.1630    -2.6260   -20.0250 ca         1 WPK      -0.092200
      3 C3          16.7550    -2.7540   -20.3470 ca         1 WPK      -0.080000
      4 N4          18.0100    -0.6840   -19.6400 nc         1 WPK      -0.569100
      5 C5          19.3500    -3.9600   -20.3620 ca         1 WPK      -0.080000
      6 N6          20.0370    -1.6270   -19.6540 na         1 WPK      -0.318600
      7 C7          16.9470    -4.0770   -20.6800 ca         1 WPK       0.152000
      8 C8          19.2960    -0.5050   -19.4360 cd         1 WPK       0.428700
      9 C9          18.2140    -4.6810   -20.6920 ca         1 WPK       0.093000
     10 F10         15.8720    -4.8280   -21.0110 f          1 WPK      -0.166000
     11 CL11        18.3460    -6.3620   -21.1280 cl         1 WPK      -0.176000
     12 H12         15.7620    -2.3250   -20.3500 ha         1 WPK       0.152000
     13 H13         20.3240    -4.4270   -20.3710 ha         1 WPK       0.136000
     14 H14         21.0350    -1.7090   -19.5400 hn         1 WPK       0.362000
     15 H15         19.7560     0.4210   -19.1290 h5         1 WPK       0.067800
@<TRIPOS>BOND
     1     1     2 ar  
     2     1     3 ar  
     3     1     4 1   
     4     2     5 ar  
     5     2     6 1   
     6     3     7 ar  
     7     3    12 1   
     8     4     8 2   
     9     5     9 ar  
    10     5    13 1   
    11     6     8 1   
    12     6    14 1   
    13     7     9 ar  
    14     7    10 1   
    15     8    15 1   
    16     9    11 1   
@<TRIPOS>SUBSTRUCTURE
     1 WPK         1 TEMP              0 ****  ****    0 ROOT
