@<TRIPOS>MOLECULE
WPK
   15    16     1     0     0
SMALL
No Charge or Current Charge


@<TRIPOS>ATOM
      1 C1          17.9030    -2.0100   -20.0090 ca         1 WPK       0.090400
      2 C2          19.1370    -2.5930   -20.0170 ca         1 WPK      -0.092200
      3 C3          16.7600    -2.7490   -20.3460 ca         1 WPK      -0.080000
      4 N4          17.9740    -0.6790   -19.6410 nc         1 WPK      -0.569100
      5 C5          19.3370    -3.9390   -20.3560 ca         1 WPK      -0.080000
      6 N6          20.0610    -1.6540   -19.6530 na         1 WPK      -0.318600
      7 C7          16.9180    -4.1070   -20.6930 ca         1 WPK       0.152000
      8 C8          19.2960    -0.4980   -19.4330 cd         1 WPK       0.428700
      9 C9          18.2030    -4.7040   -20.6990 ca         1 WPK       0.093000
     10 F10         15.8260    -4.8360   -21.0210 f          1 WPK      -0.166000
     11 Cl11        18.4060    -6.4020   -21.1320 cl         1 WPK      -0.176000
     12 H12         15.7770    -2.2880   -20.3400 ha         1 WPK       0.152000
     13 H13         20.3300    -4.3810   -20.3550 ha         1 WPK       0.136000
     14 H14         21.0650    -1.7470   -19.5570 hn         1 WPK       0.362000
     15 H15         19.7650     0.4300   -19.1270 h5         1 WPK       0.067800
@<TRIPOS>BOND
     1     1     2 ar  
     2     1     3 ar  
     3     1     4 1   
     4     2     5 ar  
     5     2     6 1   
     6     3     7 ar  
     7     3    12 1   
     8     4     8 2   
     9     5     9 ar  
    10     5    13 1   
    11     6     8 1   
    12     6    14 1   
    13     7     9 ar  
    14     7    10 1   
    15     8    15 1   
    16     9    11 1   
@<TRIPOS>SUBSTRUCTURE
     1 WPK         1 TEMP              0 ****  ****    0 ROOT
