@<TRIPOS>MOLECULE
WPL
   26    26     1     0     0
SMALL
abcg2


@<TRIPOS>ATOM
      1 CAX          1.2180    -1.2170    -0.3160 c6         1 WPL      -0.057700
      2 CAP         -0.2610    -1.2530     0.0650 c6         1 WPL      -0.064400
      3 CBA         -1.0010     0.0430    -0.2740 c6         1 WPL       0.036000
      4 CAU         -2.4700    -0.0370     0.2160 c          1 WPL       0.697000
      5 OAF         -2.6770    -0.2060     1.4260 o          1 WPL      -0.713000
      6 OAD         -3.3290     0.0820    -0.6910 o          1 WPL      -0.713000
      7 OAI         -1.0210     0.2340    -1.6730 oh         1 WPL      -0.716000
      8 CAO         -0.2850     1.2180     0.3990 c6         1 WPL      -0.091400
      9 CAW          1.1820     1.2750     0.0010 c6         1 WPL       0.129300
     10 OAG          1.8720     2.3170     0.6730 oh         1 WPL      -0.696000
     11 CAY          1.8950    -0.0250     0.3530 c6         1 WPL       0.182300
     12 OAH          3.2480     0.0140    -0.0430 oh         1 WPL      -0.679000
     13 CAJ          1.8960    -2.5330     0.0480 c3         1 WPL      -0.076100
     14 H1           1.2920    -1.0810    -1.4020 hc         1 WPL       0.062700
     15 H2          -0.7450    -2.0950    -0.4410 hc         1 WPL       0.046200
     16 H3          -0.3520    -1.4440     1.1390 hc         1 WPL       0.046200
     17 H5          -1.9820     0.2640    -1.8510 ho         1 WPL       0.478000
     18 H6          -0.7780     2.1580     0.1270 hc         1 WPL       0.049200
     19 H7          -0.3630     1.1170     1.4850 hc         1 WPL       0.049200
     20 H8           1.2560     1.4170    -1.0860 h1         1 WPL       0.047700
     21 H9           1.5830     3.1580     0.3070 ho         1 WPL       0.437000
     22 H10          1.8180    -0.1620     1.4470 h1         1 WPL       0.032700
     23 H11          3.6320     0.8240     0.3100 ho         1 WPL       0.443000
     24 H12          1.8660    -2.7020     1.1280 hc         1 WPL       0.023367
     25 H13          1.3840    -3.3710    -0.4290 hc         1 WPL       0.023367
     26 H14          2.9380    -2.5600    -0.2660 hc         1 WPL       0.023367
@<TRIPOS>BOND
     1     1     2 1   
     2     1    11 1   
     3     1    13 1   
     4     1    14 1   
     5     2     3 1   
     6     2    15 1   
     7     2    16 1   
     8     3     4 1   
     9     3     7 1   
    10     3     8 1   
    11     4     5 1   
    12     4     6 1   
    13     7    17 1   
    14     8     9 1   
    15     8    18 1   
    16     8    19 1   
    17     9    10 1   
    18     9    11 1   
    19     9    20 1   
    20    10    21 1   
    21    11    12 1   
    22    11    22 1   
    23    12    23 1   
    24    13    24 1   
    25    13    25 1   
    26    13    26 1   
@<TRIPOS>SUBSTRUCTURE
     1 WPL         1 TEMP              0 ****  ****    0 ROOT
