@<TRIPOS>MOLECULE
WPL
   26    26     1     0     0
SMALL
No Charge or Current Charge


@<TRIPOS>ATOM
      1 CAX          1.2220    -1.2240    -0.3660 c6         1 WPL      -0.057700
      2 CAP         -0.2850    -1.2430     0.0310 c6         1 WPL      -0.064400
      3 CBA         -1.0320     0.1100    -0.2270 c6         1 WPL       0.036000
      4 CAU         -2.5220    -0.0220     0.3310 c          1 WPL       0.697000
      5 OAF         -3.0220     0.9590     0.8670 o          1 WPL      -0.713000
      6 OAD         -3.2310    -0.8450    -0.2360 o          1 WPL      -0.713000
      7 OAI         -1.0490     0.3840    -1.6560 oh         1 WPL      -0.716000
      8 CAO         -0.2370     1.2400     0.5120 c6         1 WPL      -0.091400
      9 CAW          1.2540     1.2980     0.0940 c6         1 WPL       0.129300
     10 OAG          1.9260     2.3580     0.8000 oh         1 WPL      -0.696000
     11 CAY          1.9560    -0.0660     0.3720 c6         1 WPL       0.182300
     12 OAH          3.3300     0.0260    -0.0280 oh         1 WPL      -0.679000
     13 CAJ          1.8750    -2.6090    -0.0900 c3         1 WPL      -0.076100
     14 H1           1.3010    -1.0570    -1.4490 hc         1 WPL       0.062700
     15 H2          -0.7910    -2.0510    -0.5160 hc         1 WPL       0.046200
     16 H3          -0.3740    -1.5030     1.0950 hc         1 WPL       0.046200
     17 H5          -1.8440    -0.0830    -2.0050 ho         1 WPL       0.478000
     18 H6          -0.7070     2.2120     0.3100 hc         1 WPL       0.049200
     19 H7          -0.3050     1.0860     1.5980 hc         1 WPL       0.049200
     20 H8           1.3010     1.4930    -0.9880 h1         1 WPL       0.047700
     21 H9           1.4370     3.1860     0.5980 ho         1 WPL       0.437000
     22 H10          1.9030    -0.2620     1.4540 h1         1 WPL       0.032700
     23 H11          3.5850     0.9450     0.2150 ho         1 WPL       0.443000
     24 H12          1.8710    -2.8460     0.9810 hc         1 WPL       0.023367
     25 H13          1.3360    -3.4100    -0.6100 hc         1 WPL       0.023367
     26 H14          2.9150    -2.6410    -0.4360 hc         1 WPL       0.023367
@<TRIPOS>BOND
     1     1     2 1   
     2     1    11 1   
     3     1    13 1   
     4     1    14 1   
     5     2     3 1   
     6     2    15 1   
     7     2    16 1   
     8     3     4 1   
     9     3     7 1   
    10     3     8 1   
    11     4     5 1   
    12     4     6 1   
    13     7    17 1   
    14     8     9 1   
    15     8    18 1   
    16     8    19 1   
    17     9    10 1   
    18     9    11 1   
    19     9    20 1   
    20    10    21 1   
    21    11    12 1   
    22    11    22 1   
    23    12    23 1   
    24    13    24 1   
    25    13    25 1   
    26    13    26 1   
@<TRIPOS>SUBSTRUCTURE
     1 WPL         1 TEMP              0 ****  ****    0 ROOT
