@<TRIPOS>MOLECULE
WPM
   46    48     1     0     0
SMALL
abcg2


@<TRIPOS>ATOM
      1 C1           4.9130    25.2690    11.6400 c          1 WPM       0.558200
      2 C10         -4.2610    30.5540    10.5240 ca         1 WPM      -0.253900
      3 C11         -5.2670    30.4400    11.4890 ca         1 WPM       0.025000
      4 C12         -5.5950    29.1970    11.9910 ca         1 WPM      -0.143300
      5 C13         -4.9010    28.0640    11.5240 ca         1 WPM       0.043000
      6 C14         -3.8980    28.1520    10.5810 ca         1 WPM      -0.337500
      7 C15         -3.6870    31.6260     9.7880 cc         1 WPM       0.362800
      8 C16          7.2330    26.0100    11.6510 c3         1 WPM       0.078300
      9 C2           5.4070    27.5930    11.3420 cc         1 WPM      -0.007400
     10 C3           4.1010    27.9290    11.2360 cd         1 WPM      -0.344000
     11 C4           3.1190    26.9050    11.3310 cd         1 WPM       0.160600
     12 C5           3.5260    25.6130    11.5270 cc         1 WPM      -0.357200
     13 C6           0.6740    26.5620    11.1710 c          1 WPM       0.600100
     14 C7          -0.5950    27.3920    11.0050 c3         1 WPM       0.117800
     15 C9          -3.5790    29.4170    10.0610 ca         1 WPM       0.028800
     16 N1           5.8170    26.3200    11.5360 n          1 WPM      -0.276000
     17 N2           1.8000    27.3260    11.2300 ns         1 WPM      -0.421100
     18 N3          -1.7540    26.5400    11.1590 n3         1 WPM      -0.705500
     19 N4          -2.7000    29.8610     9.1360 na         1 WPM      -0.057400
     20 N5          -2.7680    31.1850     8.9710 nd         1 WPM      -0.508100
     21 O3           0.6590    25.3540    11.2300 o          1 WPM      -0.522100
     22 O4           5.3280    24.1250    11.8220 o          1 WPM      -0.557000
     23 S1          -3.0130    26.7100    10.1020 sy         1 WPM       1.178600
     24 H1          -5.7860    31.3240    11.8380 ha         1 WPM       0.122000
     25 H2          -5.1810    27.0940    11.9170 ha         1 WPM       0.135000
     26 H3          -3.9260    32.6770     9.8410 h4         1 WPM       0.054800
     27 H4           7.8080    26.9170    11.4900 h1         1 WPM       0.054367
     28 H5           7.4620    25.6190    12.6400 h1         1 WPM       0.054367
     29 H6           7.5250    25.2710    10.9080 h1         1 WPM       0.054367
     30 H7          -7.4590    28.3560    12.6620 hc         1 WPM       0.045700
     31 H8          -6.2780    28.5930    13.9410 hc         1 WPM       0.045700
     32 H9          -7.1370    29.9770    13.2710 hc         1 WPM       0.045700
     33 H10          6.1840    28.3400    11.2730 h4         1 WPM       0.198000
     34 H11          3.8270    28.9600    11.0760 ha         1 WPM       0.194000
     35 H12          2.8300    24.7960    11.6130 ha         1 WPM       0.240000
     36 H13         -0.6000    28.2190    11.7250 h1         1 WPM       0.069200
     37 H14         -0.5620    27.8410    10.0110 h1         1 WPM       0.069200
     38 H15         -1.2040    25.8810    13.0490 h1         1 WPM       0.058033
     39 H16         -2.4890    27.0970    13.0780 h1         1 WPM       0.058033
     40 H17         -2.8280    25.4220    12.5840 h1         1 WPM       0.058033
     41 H18          1.6730    28.3280    11.1540 hn         1 WPM       0.318500
     42 H19         -2.0800    29.3200     8.5560 hn         1 WPM       0.400000
     43 C17         -6.6740    29.0240    13.0200 c3         1 WPM      -0.043800
     44 C8          -2.1000    26.2270    12.5410 c3         1 WPM       0.174100
     45 O1          -2.4410    26.9630     8.7870 o          1 WPM      -0.533500
     46 O2          -3.8660    25.5550    10.3080 o          1 WPM      -0.533500
@<TRIPOS>BOND
     1     1    12 1   
     2     1    16 1   
     3     1    22 2   
     4     2     3 ar  
     5     2     7 1   
     6     2    15 ar  
     7     3     4 ar  
     8     3    24 1   
     9     4     5 ar  
    10     4    43 1   
    11     5     6 ar  
    12     5    25 1   
    13     6    15 ar  
    14     6    23 1   
    15     7    20 2   
    16     7    26 1   
    17     8    16 1   
    18     8    27 1   
    19     8    28 1   
    20     8    29 1   
    21     9    10 2   
    22     9    16 1   
    23     9    33 1   
    24    10    11 1   
    25    10    34 1   
    26    11    12 2   
    27    11    17 1   
    28    12    35 1   
    29    13    14 1   
    30    13    17 1   
    31    13    21 2   
    32    14    18 1   
    33    14    36 1   
    34    14    37 1   
    35    15    19 1   
    36    17    41 1   
    37    18    23 1   
    38    18    44 1   
    39    19    20 1   
    40    19    42 1   
    41    23    45 2   
    42    23    46 2   
    43    30    43 1   
    44    31    43 1   
    45    32    43 1   
    46    38    44 1   
    47    39    44 1   
    48    40    44 1   
@<TRIPOS>SUBSTRUCTURE
     1 WPM         1 TEMP              0 ****  ****    0 ROOT
