@<TRIPOS>MOLECULE
WPM
   46    48     1     0     0
SMALL
No Charge or Current Charge


@<TRIPOS>ATOM
      1 C1           4.7470    26.6300    10.8360 c          1 WPM       0.558200
      2 C10         -3.4290    30.3640     9.8620 ca         1 WPM      -0.253900
      3 C11         -3.8680    31.1020    10.9670 ca         1 WPM       0.025000
      4 C12         -4.3460    30.3840    12.0890 ca         1 WPM      -0.143300
      5 C13         -4.3660    28.9640    12.0670 ca         1 WPM       0.043000
      6 C14         -3.9150    28.2560    10.9280 ca         1 WPM      -0.337500
      7 C15         -2.8800    30.7710     8.5940 cc         1 WPM       0.362800
      8 C16          6.7960    26.7290    12.2240 c3         1 WPM       0.078300
      9 C2           4.5280    26.8250    13.2640 cc         1 WPM      -0.007400
     10 C3           3.1510    26.8280    13.1970 cd         1 WPM      -0.344000
     11 C4           2.4980    26.7310    11.9280 cd         1 WPM       0.160600
     12 C5           3.2850    26.6360    10.8040 cc         1 WPM      -0.357200
     13 C6           0.1960    26.6720    10.9010 c          1 WPM       0.600100
     14 C7          -1.2900    26.7100    11.3650 c3         1 WPM       0.117800
     15 C9          -3.4490    29.0070     9.8410 ca         1 WPM       0.028800
     16 N1           5.3190    26.7290    12.1200 n          1 WPM      -0.276000
     17 N2           1.1150    26.7400    11.9410 ns         1 WPM      -0.421100
     18 N3          -2.3260    26.0790    10.4780 n3         1 WPM      -0.705500
     19 N4          -2.9220    28.6190     8.6260 na         1 WPM      -0.057400
     20 N5          -2.5610    29.7150     7.8280 nd         1 WPM      -0.508100
     21 O3           0.5120    26.5930     9.7200 o          1 WPM      -0.522100
     22 O4           5.4180    26.5440     9.8160 o          1 WPM      -0.557000
     23 S1          -3.9370    26.4590    10.8840 sy         1 WPM       1.178600
     24 H1          -3.8370    32.1900    10.9630 ha         1 WPM       0.122000
     25 H2          -4.7340    28.4220    12.9380 ha         1 WPM       0.135000
     26 H3          -2.6900    31.7570     8.1900 h4         1 WPM       0.054800
     27 H4           7.1140    26.8120    13.2710 h1         1 WPM       0.054367
     28 H5           7.1950    25.7950    11.8070 h1         1 WPM       0.054367
     29 H6           7.2060    27.5780    11.6620 h1         1 WPM       0.054367
     30 H7          -5.6790    30.6180    13.7910 hc         1 WPM       0.045700
     31 H8          -4.0330    31.2100    14.0700 hc         1 WPM       0.045700
     32 H9          -5.1590    32.1480    13.0740 hc         1 WPM       0.045700
     33 H10          5.1080    26.8950    14.1810 h4         1 WPM       0.198000
     34 H11          2.5710    26.9050    14.1130 ha         1 WPM       0.194000
     35 H12          2.8840    26.5580     9.8050 ha         1 WPM       0.240000
     36 H13         -1.3310    26.2420    12.3570 h1         1 WPM       0.069200
     37 H14         -1.5010    27.7740    11.5190 h1         1 WPM       0.069200
     38 H15         -1.0960    24.4290     9.8980 h1         1 WPM       0.058033
     39 H16         -2.2540    24.0670    11.1960 h1         1 WPM       0.058033
     40 H17         -2.8100    24.2340     9.5150 h1         1 WPM       0.058033
     41 H18          0.6760    26.8100    12.8500 hn         1 WPM       0.318500
     42 H19         -2.7700    27.6570     8.3240 hn         1 WPM       0.400000
     43 C17         -4.8310    31.1310    13.3220 c3         1 WPM      -0.043800
     44 C8          -2.1110    24.6300    10.2630 c3         1 WPM       0.174100
     45 O1          -4.7350    26.0760     9.7150 o          1 WPM      -0.533500
     46 O2          -4.2030    25.9200    12.2220 o          1 WPM      -0.533500
@<TRIPOS>BOND
     1     1    12 1   
     2     1    16 1   
     3     1    22 2   
     4     2     3 ar  
     5     2     7 1   
     6     2    15 ar  
     7     3     4 ar  
     8     3    24 1   
     9     4     5 ar  
    10     4    43 1   
    11     5     6 ar  
    12     5    25 1   
    13     6    15 ar  
    14     6    23 1   
    15     7    20 2   
    16     7    26 1   
    17     8    16 1   
    18     8    27 1   
    19     8    28 1   
    20     8    29 1   
    21     9    10 2   
    22     9    16 1   
    23     9    33 1   
    24    10    11 1   
    25    10    34 1   
    26    11    12 2   
    27    11    17 1   
    28    12    35 1   
    29    13    14 1   
    30    13    17 1   
    31    13    21 2   
    32    14    18 1   
    33    14    36 1   
    34    14    37 1   
    35    15    19 1   
    36    17    41 1   
    37    18    23 1   
    38    18    44 1   
    39    19    20 1   
    40    19    42 1   
    41    23    45 2   
    42    23    46 2   
    43    30    43 1   
    44    31    43 1   
    45    32    43 1   
    46    38    44 1   
    47    39    44 1   
    48    40    44 1   
@<TRIPOS>SUBSTRUCTURE
     1 WPM         1 TEMP              0 ****  ****    0 ROOT
