@<TRIPOS>MOLECULE
WPO
   43    45     1     0     0
SMALL
abcg2


@<TRIPOS>ATOM
      1 O2          14.4400   -27.3450    10.7150 oh         1 WPO      -0.709000
      2 C2          14.9220   -26.1570    10.1130 c5         1 WPO       0.097300
      3 C1          14.9140   -26.3540     8.5970 c5         1 WPO       0.314300
      4 O4          13.6570   -25.9220     8.1280 os         1 WPO      -0.420000
      5 C4          12.8970   -25.2970     9.1850 c5         1 WPO       0.157300
      6 C5          12.2110   -24.0590     8.6730 c3         1 WPO       0.225600
      7 O5          11.2150   -24.4360     7.7220 os         1 WPO      -0.572400
      8 P           10.6150   -23.3060     6.7230 p5         1 WPO       1.406800
      9 O1P          9.5580   -23.9840     5.9170 o          1 WPO      -0.825000
     10 O2P         10.3010   -22.0490     7.4700 o          1 WPO      -0.825000
     11 O3P         11.9520   -23.0780     5.8140 os         1 WPO      -0.624400
     12 C1P         12.1080   -21.8750     5.0720 c3         1 WPO       0.259800
     13 C2P         13.3560   -21.9130     4.2520 c2         1 WPO      -0.229200
     14 C3P         14.1950   -22.9370     4.1580 c2         1 WPO      -0.311000
     15 C3          13.9090   -25.0150    10.2940 c5         1 WPO       0.088300
     16 O3          13.2670   -25.0440    11.5570 oh         1 WPO      -0.709000
     17 N9          15.9670   -25.5820     7.9310 na         1 WPO      -0.309300
     18 C8          15.8510   -24.4100     7.2190 cc         1 WPO       0.442700
     19 N7          16.9950   -23.9890     6.7330 nd         1 WPO      -0.572100
     20 C10         17.9200   -24.9310     7.1450 ca         1 WPO      -0.089600
     21 C9          17.2960   -25.9310     7.8900 ca         1 WPO       0.113500
     22 N3          17.8900   -26.9960     8.4420 nb         1 WPO      -0.211000
     23 C7          19.1990   -27.0140     8.1960 ca         1 WPO       0.161900
     24 N1          19.9240   -26.1300     7.5010 nb         1 WPO      -0.309000
     25 C6          19.3090   -25.0640     6.9540 ca         1 WPO       0.436900
     26 N6          20.0410   -24.1690     6.2690 nv         1 WPO      -1.073900
     27 H1          13.9410   -27.0760    11.5020 ho         1 WPO       0.521000
     28 H2          15.9180   -25.9040    10.4840 h1         1 WPO       0.066700
     29 H3          15.0720   -27.4020     8.3420 h2         1 WPO       0.114700
     30 H4          12.1520   -26.0110     9.5460 h1         1 WPO       0.092700
     31 H5          12.9430   -23.3900     8.2140 h1         1 WPO       0.032700
     32 H6          11.7450   -23.5400     9.5160 h1         1 WPO       0.032700
     33 H8          12.1410   -21.0190     5.7540 h1         1 WPO       0.028200
     34 H9          11.2460   -21.7200     4.4110 h1         1 WPO       0.028200
     35 H10         13.5490   -20.9970     3.7010 ha         1 WPO       0.142000
     36 H11         15.0810   -22.8790     3.5390 ha         1 WPO       0.160000
     37 H12         14.0210   -23.8600     4.6960 ha         1 WPO       0.160000
     38 H13         14.4020   -24.0530    10.1290 h1         1 WPO       0.057700
     39 H14         13.7930   -24.5350    12.1870 ho         1 WPO       0.506000
     40 H15         14.8990   -23.9270     7.0850 h5         1 WPO       0.102800
     41 H16         19.7520   -27.8510     8.6100 h5         1 WPO       0.038100
     42 H17         21.0120   -24.3590     6.0870 hn         1 WPO       0.501000
     43 H18         19.5920   -23.4180     5.7730 hn         1 WPO       0.501000
@<TRIPOS>BOND
     1     1     2 1   
     2     1    27 1   
     3     2     3 1   
     4     2    15 1   
     5     2    28 1   
     6     3     4 1   
     7     3    17 1   
     8     3    29 1   
     9     4     5 1   
    10     5     6 1   
    11     5    15 1   
    12     5    30 1   
    13     6     7 1   
    14     6    31 1   
    15     6    32 1   
    16     7     8 1   
    17     8     9 1   
    18     8    10 1   
    19     8    11 1   
    20    11    12 1   
    21    12    13 1   
    22    12    33 1   
    23    12    34 1   
    24    13    14 2   
    25    13    35 1   
    26    14    36 1   
    27    14    37 1   
    28    15    16 1   
    29    15    38 1   
    30    16    39 1   
    31    17    18 1   
    32    17    21 1   
    33    18    19 2   
    34    18    40 1   
    35    19    20 1   
    36    20    21 ar  
    37    20    25 ar  
    38    21    22 ar  
    39    22    23 ar  
    40    23    24 ar  
    41    23    41 1   
    42    24    25 ar  
    43    25    26 1   
    44    26    42 1   
    45    26    43 1   
@<TRIPOS>SUBSTRUCTURE
     1 WPO         1 TEMP              0 ****  ****    0 ROOT
