@<TRIPOS>MOLECULE
WPO
   43    45     1     0     0
SMALL
No Charge or Current Charge


@<TRIPOS>ATOM
      1 O2          14.3100   -26.2280    11.5050 oh         1 WPO      -0.709000
      2 C2          14.7110   -25.1170    10.6880 c5         1 WPO       0.097300
      3 C1          15.0230   -25.5190     9.1950 c5         1 WPO       0.314300
      4 O4          13.8070   -25.2850     8.4430 os         1 WPO      -0.420000
      5 C4          12.7450   -24.9410     9.3600 c5         1 WPO       0.157300
      6 C5          11.6270   -24.1220     8.6580 c3         1 WPO       0.225600
      7 O5          10.9740   -24.9420     7.6740 os         1 WPO      -0.572400
      8 P           10.7840   -24.4360     6.1540 p5         1 WPO       1.406800
      9 O1P          9.7100   -25.2270     5.4830 o          1 WPO      -0.825000
     10 O2P         10.5050   -22.9720     6.0750 o          1 WPO      -0.825000
     11 O3P         12.2190   -24.8250     5.5330 os         1 WPO      -0.624400
     12 C1P         13.2870   -23.8780     5.5650 c3         1 WPO       0.259800
     13 C2P         14.5090   -24.5590     4.9880 c2         1 WPO      -0.229200
     14 C3P         15.4250   -23.9890     4.1880 c2         1 WPO      -0.311000
     15 C3          13.4910   -24.1710    10.4890 c5         1 WPO       0.088300
     16 O3          12.7280   -24.0430    11.7030 oh         1 WPO      -0.709000
     17 N9          16.1080   -24.8090     8.5150 na         1 WPO      -0.309300
     18 C8          16.5390   -23.5030     8.7790 cc         1 WPO       0.442700
     19 N7          17.5630   -23.1510     7.9760 nd         1 WPO      -0.572100
     20 C10         17.7620   -24.2910     7.1910 ca         1 WPO      -0.089600
     21 C9          16.8900   -25.3010     7.5090 ca         1 WPO       0.113500
     22 N3          16.9080   -26.4930     6.8790 nb         1 WPO      -0.211000
     23 C7          17.8370   -26.6250     5.9020 ca         1 WPO       0.161900
     24 N1          18.7390   -25.6930     5.5070 nb         1 WPO      -0.309000
     25 C6          18.6990   -24.5210     6.1610 ca         1 WPO       0.436900
     26 N6          19.6050   -23.5860     5.7680 nv         1 WPO      -1.073900
     27 H1          13.5530   -25.8630    12.0320 ho         1 WPO       0.521000
     28 H2          15.5580   -24.5920    11.1520 h1         1 WPO       0.066700
     29 H3          15.2890   -26.5830     9.1540 h2         1 WPO       0.114700
     30 H4          12.3000   -25.8680     9.7480 h1         1 WPO       0.092700
     31 H5          12.0660   -23.2180     8.2160 h1         1 WPO       0.032700
     32 H6          10.9000   -23.8000     9.4140 h1         1 WPO       0.032700
     33 H8          13.5040   -23.5460     6.5870 h1         1 WPO       0.028200
     34 H9          13.0370   -22.9920     4.9650 h1         1 WPO       0.028200
     35 H10         14.6130   -25.6020     5.2890 ha         1 WPO       0.142000
     36 H11         16.2860   -24.5480     3.8190 ha         1 WPO       0.160000
     37 H12         15.3480   -22.9450     3.8780 ha         1 WPO       0.160000
     38 H13         13.8110   -23.1840    10.1240 h1         1 WPO       0.057700
     39 H14         12.9600   -23.1750    12.1150 ho         1 WPO       0.506000
     40 H15         16.0840   -22.8770     9.5380 h5         1 WPO       0.102800
     41 H16         17.8630   -27.5800     5.3800 h5         1 WPO       0.038100
     42 H17         20.0380   -23.6960     4.8550 hn         1 WPO       0.501000
     43 H18         19.4530   -22.6330     6.0900 hn         1 WPO       0.501000
@<TRIPOS>BOND
     1     1     2 1   
     2     1    27 1   
     3     2     3 1   
     4     2    15 1   
     5     2    28 1   
     6     3     4 1   
     7     3    17 1   
     8     3    29 1   
     9     4     5 1   
    10     5     6 1   
    11     5    15 1   
    12     5    30 1   
    13     6     7 1   
    14     6    31 1   
    15     6    32 1   
    16     7     8 1   
    17     8     9 1   
    18     8    10 1   
    19     8    11 1   
    20    11    12 1   
    21    12    13 1   
    22    12    33 1   
    23    12    34 1   
    24    13    14 2   
    25    13    35 1   
    26    14    36 1   
    27    14    37 1   
    28    15    16 1   
    29    15    38 1   
    30    16    39 1   
    31    17    18 1   
    32    17    21 1   
    33    18    19 2   
    34    18    40 1   
    35    19    20 1   
    36    20    21 ar  
    37    20    25 ar  
    38    21    22 ar  
    39    22    23 ar  
    40    23    24 ar  
    41    23    41 1   
    42    24    25 ar  
    43    25    26 1   
    44    26    42 1   
    45    26    43 1   
@<TRIPOS>SUBSTRUCTURE
     1 WPO         1 TEMP              0 ****  ****    0 ROOT
