@<TRIPOS>MOLECULE
WPP
   62    65     1     0     0
SMALL
No Charge or Current Charge


@<TRIPOS>ATOM
      1 C           -3.3640   -16.9010    12.5490 c          1 WPP       0.541000
      2 N           -5.6350   -15.7630    11.9560 ns         1 WPP      -0.460900
      3 O           -2.4360   -16.4910    11.8630 o          1 WPP      -0.514000
      4 CA          -4.7780   -16.3750    12.9570 cy         1 WPP       0.002700
      5 CB          -5.0270   -17.8620    13.4000 cy         1 WPP       0.202700
      6 CAC         -8.0670   -17.2220     9.9090 ca         1 WPP      -0.081000
      7 CAE         -3.0910   -19.4480    12.9550 c5         1 WPP      -0.036300
      8 CAF         -4.3620   -20.3510    12.7520 c5         1 WPP       0.159000
      9 CAG         -9.9020   -13.6670    10.6040 c          1 WPP       0.657100
     10 CAH         -4.8920   -21.0550    14.0310 c3         1 WPP      -0.076100
     11 CAI         -4.1790   -21.4050    11.6350 c3         1 WPP      -0.076100
     12 CAJ        -12.0690   -12.5070    10.2990 c6         1 WPP       0.087000
     13 CAK         -6.9640   -15.4590    12.1670 c          1 WPP       0.592100
     14 CAL        -15.9200   -11.8130    12.9880 c3         1 WPP      -0.115100
     15 CAM         -7.7200   -14.9050    10.9240 c3         1 WPP       0.096000
     16 CAN        -11.8680   -14.2590    12.0790 c          1 WPP       0.490000
     17 CAO         -2.1420   -20.0450    14.0400 c          1 WPP       0.728000
     18 CAP        -13.4530   -14.1140    12.2760 c          1 WPP       0.492000
     19 CAR        -13.2580   -11.9250    11.0980 c6         1 WPP       0.087000
     20 CAS         -7.6640   -15.8800     9.7480 ca         1 WPP      -0.110300
     21 CAT         -7.2080   -15.4450     8.4880 ca         1 WPP      -0.081000
     22 CAU         -7.1490   -16.3400     7.4050 ca         1 WPP      -0.105500
     23 CAV         -7.5470   -17.6770     7.5750 ca         1 WPP      -0.098000
     24 CAW         -8.0070   -18.1170     8.8270 ca         1 WPP      -0.105500
     25 NAY         -9.1180   -14.5750    11.2630 ns         1 WPP      -0.488900
     26 NAZ        -11.2350   -13.5000    11.0490 n          1 WPP      -0.392400
     27 NBA        -14.0770   -12.9710    11.7340 n          1 WPP      -0.411800
     28 NBB         -3.5850   -18.0910    13.2470 nj         1 WPP      -0.312800
     29 OBC         -7.4990   -15.6290    13.2580 o          1 WPP      -0.595100
     30 OBE         -1.3120   -20.8740    13.6930 o          1 WPP      -0.704500
     31 OBF         -2.1730   -19.6090    15.1840 o          1 WPP      -0.704500
     32 OBG         -9.4530   -13.0270     9.6660 o          1 WPP      -0.625100
     33 SBJ         -5.6490   -19.1270    12.2020 ss         1 WPP      -0.569000
     34 HN          -5.2870   -15.6170    11.0140 hn         1 WPP       0.331500
     35 HA          -4.7040   -15.6940    13.8110 h1         1 WPP       0.102700
     36 HB          -5.4330   -18.0300    14.4040 h2         1 WPP       0.110700
     37 HAC         -8.4240   -17.5770    10.8740 ha         1 WPP       0.115500
     38 HAE         -2.5180   -19.3840    12.0220 h1         1 WPP       0.058700
     39 HAH         -5.8630   -21.5290    13.8460 hc         1 WPP       0.045200
     40 HAHA        -4.2070   -21.8400    14.3720 hc         1 WPP       0.045200
     41 HAHB        -5.0250   -20.3480    14.8590 hc         1 WPP       0.045200
     42 HAI         -5.1110   -21.9520    11.4460 hc         1 WPP       0.045200
     43 HAIA        -3.8760   -20.9340    10.6920 hc         1 WPP       0.045200
     44 HAIB        -3.4090   -22.1380    11.9040 hc         1 WPP       0.045200
     45 HAJ        -12.4590   -12.9960     9.3940 h1         1 WPP       0.078700
     46 HAJA       -11.4510   -11.6620     9.9650 h1         1 WPP       0.078700
     47 HAL        -17.0080   -11.6860    13.0310 hc         1 WPP       0.043700
     48 HALA       -15.5810   -12.2160    13.9490 hc         1 WPP       0.043700
     49 HALB       -15.4640   -10.8260    12.8440 hc         1 WPP       0.043700
     50 HAM         -7.2030   -13.9770    10.6460 h1         1 WPP       0.079700
     51 HAQ        -16.0500   -13.7240    11.9800 h1         1 WPP       0.060200
     52 HAQA       -15.9060   -12.3430    10.8930 h1         1 WPP       0.060200
     53 HAR        -12.8710   -11.2590    11.8830 h1         1 WPP       0.058200
     54 HARA       -13.8800   -11.3140    10.4280 h1         1 WPP       0.058200
     55 HAT         -6.9010   -14.4110     8.3430 ha         1 WPP       0.115500
     56 HAU         -6.7960   -15.9970     6.4360 ha         1 WPP       0.110500
     57 HAV         -7.5010   -18.3690     6.7370 ha         1 WPP       0.108000
     58 HAW         -8.3140   -19.1510     8.9600 ha         1 WPP       0.110500
     59 HNAY        -9.5470   -15.0410    12.0570 hn         1 WPP       0.382500
     60 OBH        -14.1020   -14.9710    12.8720 o          1 WPP      -0.509000
     61 CAQ        -15.5390   -12.7620    11.8390 c3         1 WPP       0.100000
     62 OBI        -11.2430   -15.0340    12.7990 o          1 WPP      -0.481000
@<TRIPOS>BOND
     1     1     3 2   
     2     1     4 1   
     3     1    28 1   
     4     2     4 1   
     5     2    13 1   
     6     2    34 1   
     7     4     5 1   
     8     4    35 1   
     9     5    28 1   
    10     5    33 1   
    11     5    36 1   
    12     6    20 ar  
    13     6    24 ar  
    14     6    37 1   
    15     7     8 1   
    16     7    17 1   
    17     7    28 1   
    18     7    38 1   
    19     8    10 1   
    20     8    11 1   
    21     8    33 1   
    22     9    25 1   
    23     9    26 1   
    24     9    32 2   
    25    10    39 1   
    26    10    40 1   
    27    10    41 1   
    28    11    42 1   
    29    11    43 1   
    30    11    44 1   
    31    12    19 1   
    32    12    26 1   
    33    12    45 1   
    34    12    46 1   
    35    13    15 1   
    36    13    29 2   
    37    14    47 1   
    38    14    48 1   
    39    14    49 1   
    40    14    61 1   
    41    15    20 1   
    42    15    25 1   
    43    15    50 1   
    44    16    18 1   
    45    16    26 1   
    46    16    62 2   
    47    17    30 1   
    48    17    31 1   
    49    18    27 1   
    50    18    60 2   
    51    19    27 1   
    52    19    53 1   
    53    19    54 1   
    54    20    21 ar  
    55    21    22 ar  
    56    21    55 1   
    57    22    23 ar  
    58    22    56 1   
    59    23    24 ar  
    60    23    57 1   
    61    24    58 1   
    62    25    59 1   
    63    27    61 1   
    64    51    61 1   
    65    52    61 1   
@<TRIPOS>SUBSTRUCTURE
     1 WPP         1 TEMP              0 ****  ****    0 ROOT
