@<TRIPOS>MOLECULE
WPP
   62    65     1     0     0
SMALL
abcg2


@<TRIPOS>ATOM
      1 C           -3.9820   -16.6330    13.5000 c          1 WPP       0.541000
      2 N           -6.1790   -15.9340    12.5140 ns         1 WPP      -0.460900
      3 O           -3.1300   -15.7970    13.3040 o          1 WPP      -0.514000
      4 CA          -5.5240   -16.6270    13.5830 cy         1 WPP       0.002700
      5 CB          -5.3750   -18.1800    13.5100 cy         1 WPP       0.202700
      6 CAC         -8.8390   -17.5150    10.1160 ca         1 WPP      -0.081000
      7 CAE         -3.0360   -18.9180    12.9470 c5         1 WPP      -0.036300
      8 CAF         -3.9670   -19.9300    12.1910 c5         1 WPP       0.159000
      9 CAG        -10.0950   -14.1100    10.5240 c          1 WPP       0.657100
     10 CAH         -4.2780   -21.1750    13.0250 c3         1 WPP      -0.076100
     11 CAI         -3.3850   -20.3210    10.8380 c3         1 WPP      -0.076100
     12 CAJ        -12.1320   -12.8340     9.9740 c6         1 WPP       0.087000
     13 CAK         -7.5230   -15.8600    12.4520 c          1 WPP       0.592100
     14 CAL        -15.2050   -11.0040    12.9320 c3         1 WPP      -0.115100
     15 CAM         -8.0820   -15.3230    11.1270 c3         1 WPP       0.096000
     16 CAN        -12.1210   -14.2570    11.9590 c          1 WPP       0.490000
     17 CAO         -1.9990   -19.6310    13.8590 c          1 WPP       0.728000
     18 CAP        -13.5950   -13.8000    12.1540 c          1 WPP       0.492000
     19 CAR        -13.0150   -11.8960    10.7560 c6         1 WPP       0.087000
     20 CAS         -7.9730   -16.4240    10.0820 ca         1 WPP      -0.110300
     21 CAT         -6.9670   -16.3770     9.1220 ca         1 WPP      -0.081000
     22 CAU         -6.8190   -17.4140     8.2070 ca         1 WPP      -0.105500
     23 CAV         -7.6830   -18.5040     8.2450 ca         1 WPP      -0.098000
     24 CAW         -8.6950   -18.5500     9.2000 ca         1 WPP      -0.105500
     25 NAY         -9.4350   -14.8930    11.3850 ns         1 WPP      -0.488900
     26 NAZ        -11.4330   -13.7500    10.8920 n          1 WPP      -0.392400
     27 NBA        -13.9680   -12.6590    11.5580 n          1 WPP      -0.411800
     28 NBB         -3.9230   -17.9920    13.6390 nj         1 WPP      -0.312800
     29 OBC         -8.2590   -16.2380    13.3560 o          1 WPP      -0.595100
     30 OBE         -1.0460   -20.1640    13.2410 o          1 WPP      -0.704500
     31 OBF         -2.1970   -19.6230    15.0930 o          1 WPP      -0.704500
     32 OBG         -9.6250   -13.6850     9.4780 o          1 WPP      -0.625100
     33 SBJ         -5.5580   -18.9870    11.8950 ss         1 WPP      -0.569000
     34 HN          -5.6340   -15.6710    11.7060 hn         1 WPP       0.331500
     35 HA          -5.9150   -16.3020    14.5460 h1         1 WPP       0.102700
     36 HB          -5.8380   -18.7480    14.3130 h2         1 WPP       0.110700
     37 HAC         -9.6250   -17.5560    10.8590 ha         1 WPP       0.115500
     38 HAE         -2.4780   -18.3430    12.2060 h1         1 WPP       0.058700
     39 HAH         -4.9880   -21.8080    12.4910 hc         1 WPP       0.045200
     40 HAHA        -3.3650   -21.7490    13.1920 hc         1 WPP       0.045200
     41 HAHB        -4.7030   -20.9210    13.9950 hc         1 WPP       0.045200
     42 HAI         -4.0650   -20.9860    10.3050 hc         1 WPP       0.045200
     43 HAIA        -3.1980   -19.4400    10.2230 hc         1 WPP       0.045200
     44 HAIB        -2.4420   -20.8460    10.9930 hc         1 WPP       0.045200
     45 HAJ        -12.7200   -13.4120     9.2580 h1         1 WPP       0.078700
     46 HAJA       -11.3790   -12.2740     9.4310 h1         1 WPP       0.078700
     47 HAL        -16.2000   -10.5920    13.1100 hc         1 WPP       0.043700
     48 HALA       -14.8370   -11.4330    13.8650 hc         1 WPP       0.043700
     49 HALB       -14.5450   -10.1860    12.6410 hc         1 WPP       0.043700
     50 HAM         -7.4820   -14.4720    10.8020 h1         1 WPP       0.079700
     51 HAQ        -15.9410   -12.8780    12.1390 h1         1 WPP       0.060200
     52 HAQA       -15.6510   -11.6430    10.9110 h1         1 WPP       0.060200
     53 HAR        -12.4160   -11.2360    11.3900 h1         1 WPP       0.058200
     54 HARA       -13.5800   -11.2770    10.0610 h1         1 WPP       0.058200
     55 HAT         -6.2950   -15.5270     9.0910 ha         1 WPP       0.115500
     56 HAU         -6.0340   -17.3680     7.4620 ha         1 WPP       0.110500
     57 HAV         -7.5700   -19.3120     7.5340 ha         1 WPP       0.108000
     58 HAW         -9.3700   -19.3960     9.2340 ha         1 WPP       0.110500
     59 HNAY        -9.9080   -15.2310    12.2160 hn         1 WPP       0.382500
     60 OBH        -14.3120   -14.4870    12.8720 o          1 WPP      -0.509000
     61 CAQ        -15.2770   -12.0700    11.8430 c3         1 WPP       0.100000
     62 OBI        -11.6680   -15.0410    12.7770 o          1 WPP      -0.481000
@<TRIPOS>BOND
     1     1     3 2   
     2     1     4 1   
     3     1    28 1   
     4     2     4 1   
     5     2    13 1   
     6     2    34 1   
     7     4     5 1   
     8     4    35 1   
     9     5    28 1   
    10     5    33 1   
    11     5    36 1   
    12     6    20 ar  
    13     6    24 ar  
    14     6    37 1   
    15     7     8 1   
    16     7    17 1   
    17     7    28 1   
    18     7    38 1   
    19     8    10 1   
    20     8    11 1   
    21     8    33 1   
    22     9    25 1   
    23     9    26 1   
    24     9    32 2   
    25    10    39 1   
    26    10    40 1   
    27    10    41 1   
    28    11    42 1   
    29    11    43 1   
    30    11    44 1   
    31    12    19 1   
    32    12    26 1   
    33    12    45 1   
    34    12    46 1   
    35    13    15 1   
    36    13    29 2   
    37    14    47 1   
    38    14    48 1   
    39    14    49 1   
    40    14    61 1   
    41    15    20 1   
    42    15    25 1   
    43    15    50 1   
    44    16    18 1   
    45    16    26 1   
    46    16    62 2   
    47    17    30 1   
    48    17    31 1   
    49    18    27 1   
    50    18    60 2   
    51    19    27 1   
    52    19    53 1   
    53    19    54 1   
    54    20    21 ar  
    55    21    22 ar  
    56    21    55 1   
    57    22    23 ar  
    58    22    56 1   
    59    23    24 ar  
    60    23    57 1   
    61    24    58 1   
    62    25    59 1   
    63    27    61 1   
    64    51    61 1   
    65    52    61 1   
@<TRIPOS>SUBSTRUCTURE
     1 WPP         1 TEMP              0 ****  ****    0 ROOT
