@<TRIPOS>MOLECULE
WPQ
   35    36     1     0     0
SMALL
No Charge or Current Charge


@<TRIPOS>ATOM
      1 C01          2.7970     5.6410    19.8210 cc         1 WPQ       0.044600
      2 C02          2.3860     5.7190    21.1440 cd         1 WPQ      -0.303600
      3 C04          0.4730     4.7240    20.1880 cc         1 WPQ      -0.332000
      4 C06          3.1720     6.2720    22.2880 c          1 WPQ       0.643700
      5 O08          2.7130     6.2810    23.4230 o          1 WPQ      -0.524000
      6 C10          6.4950     7.8880    22.5680 c3         1 WPQ      -0.100100
      7 C17          5.9890     6.5360    17.9460 ce         1 WPQ      -0.294400
      8 C18          6.7650     6.8240    16.8450 cf         1 WPQ      -0.002400
      9 C19          8.1710     7.2010    17.3600 c5         1 WPQ      -0.064200
     10 C20          8.2270     6.5550    18.7630 c5         1 WPQ      -0.082400
     11 C21          6.7680     6.7360    19.2510 c5         1 WPQ      -0.029200
     12 C03          1.0690     5.1920    21.3260 cd         1 WPQ      -0.050000
     13 S05          1.5330     4.9170    18.8050 ss         1 WPQ       0.302000
     14 O07          4.4160     6.7800    21.9990 os         1 WPQ      -0.476100
     15 C09          5.1650     7.3370    23.0990 c3         1 WPQ       0.170600
     16 N11          4.0470     6.0670    19.3760 ns         1 WPQ      -0.383100
     17 C12          4.5650     6.0460    18.0900 c          1 WPQ       0.634300
     18 O13          3.9060     5.6480    17.1440 o          1 WPQ      -0.549100
     19 C14          6.4670     6.8070    15.3530 c          1 WPQ       0.714200
     20 O15          7.3880     7.0610    14.5860 o          1 WPQ      -0.702000
     21 O16          5.3350     6.5940    14.9470 o          1 WPQ      -0.702000
     22 H23         -0.5060     4.2830    20.0560 h4         1 WPQ       0.140000
     23 H28          7.0670     8.3400    23.3860 hc         1 WPQ       0.046033
     24 H26          7.1030     7.0860    22.1350 hc         1 WPQ       0.046033
     25 H27          6.3190     8.6600    21.8100 hc         1 WPQ       0.046033
     26 H31          8.9730     6.8250    16.7160 hc         1 WPQ       0.061700
     27 H32          8.2820     8.2910    17.4140 hc         1 WPQ       0.061700
     28 H34          8.4860     5.4920    18.6930 hc         1 WPQ       0.030200
     29 H33          8.9590     7.0310    19.4240 hc         1 WPQ       0.030200
     30 H36          6.5970     7.7410    19.6530 hc         1 WPQ       0.026200
     31 H35          6.5320     6.0010    20.0290 hc         1 WPQ       0.026200
     32 H22          0.5720     5.1630    22.2930 ha         1 WPQ       0.134000
     33 H25          4.6060     8.1550    23.5740 h1         1 WPQ       0.044700
     34 H24          5.3690     6.5710    23.8600 h1         1 WPQ       0.044700
     35 H29          4.6770     6.4450    20.0740 hn         1 WPQ       0.345500
@<TRIPOS>BOND
     1     1     2 2   
     2     1    13 1   
     3     1    16 1   
     4     2     4 1   
     5     2    12 1   
     6     3    12 2   
     7     3    13 1   
     8     3    22 1   
     9     4     5 2   
    10     4    14 1   
    11     6    15 1   
    12     6    23 1   
    13     6    24 1   
    14     6    25 1   
    15     7     8 2   
    16     7    11 1   
    17     7    17 1   
    18     8     9 1   
    19     8    19 1   
    20     9    10 1   
    21     9    26 1   
    22     9    27 1   
    23    10    11 1   
    24    10    28 1   
    25    10    29 1   
    26    11    30 1   
    27    11    31 1   
    28    12    32 1   
    29    14    15 1   
    30    15    33 1   
    31    15    34 1   
    32    16    17 1   
    33    16    35 1   
    34    17    18 2   
    35    19    20 1   
    36    19    21 1   
@<TRIPOS>SUBSTRUCTURE
     1 WPQ         1 TEMP              0 ****  ****    0 ROOT
