@<TRIPOS>MOLECULE
WPQ
   35    36     1     0     0
SMALL
abcg2


@<TRIPOS>ATOM
      1 C01          2.9650     5.6700    19.8490 cc         1 WPQ       0.044600
      2 C02          2.4320     5.7170    21.1340 cd         1 WPQ      -0.303600
      3 C04          0.6480     4.7840    19.9700 cc         1 WPQ      -0.332000
      4 C06          3.0790     6.2150    22.3490 c          1 WPQ       0.643700
      5 O08          2.5490     6.2230    23.4450 o          1 WPQ      -0.524000
      6 C10          6.4130     7.6130    22.8690 c3         1 WPQ      -0.100100
      7 C17          6.0890     6.5270    18.0380 ce         1 WPQ      -0.294400
      8 C18          6.7020     6.7010    16.8520 cf         1 WPQ      -0.002400
      9 C19          8.0710     7.3040    17.0380 c5         1 WPQ      -0.064200
     10 C20          8.3500     7.1350    18.5440 c5         1 WPQ      -0.082400
     11 C21          6.9600     6.9850    19.1930 c5         1 WPQ      -0.029200
     12 C03          1.0980     5.2010    21.1780 cd         1 WPQ      -0.050000
     13 S05          1.8290     5.0020    18.7200 ss         1 WPQ       0.302000
     14 O07          4.3330     6.6710    22.1500 os         1 WPQ      -0.476100
     15 C09          5.0350     7.1890    23.3120 c3         1 WPQ       0.170600
     16 N11          4.2180     6.0830    19.4700 ns         1 WPQ      -0.383100
     17 C12          4.7220     6.0290    18.1880 c          1 WPQ       0.634300
     18 O13          4.0300     5.5870    17.2690 o          1 WPQ      -0.549100
     19 C14          6.1920     6.4330    15.4590 c          1 WPQ       0.714200
     20 O15          6.4610     5.3050    14.9810 o          1 WPQ      -0.702000
     21 O16          5.6150     7.3880    14.8870 o          1 WPQ      -0.702000
     22 H23         -0.3120     4.3580    19.7240 h4         1 WPQ       0.140000
     23 H28          6.9580     8.0070    23.7290 hc         1 WPQ       0.046033
     24 H26          6.9730     6.7680    22.4660 hc         1 WPQ       0.046033
     25 H27          6.3590     8.3920    22.1080 hc         1 WPQ       0.046033
     26 H31          8.8200     6.8270    16.4040 hc         1 WPQ       0.061700
     27 H32          8.0340     8.3590    16.7430 hc         1 WPQ       0.061700
     28 H34          8.9220     6.2190    18.7030 hc         1 WPQ       0.030200
     29 H33          8.9220     7.9620    18.9640 hc         1 WPQ       0.030200
     30 H36          6.5980     7.9390    19.5950 hc         1 WPQ       0.026200
     31 H35          6.9750     6.2760    20.0230 hc         1 WPQ       0.026200
     32 H22          0.5240     5.1560    22.0910 ha         1 WPQ       0.134000
     33 H25          4.4590     8.0240    23.7120 h1         1 WPQ       0.044700
     34 H24          5.0730     6.4030    24.0660 h1         1 WPQ       0.044700
     35 H29          4.7880     6.4570    20.2160 hn         1 WPQ       0.345500
@<TRIPOS>BOND
     1     1     2 2   
     2     1    13 1   
     3     1    16 1   
     4     2     4 1   
     5     2    12 1   
     6     3    12 2   
     7     3    13 1   
     8     3    22 1   
     9     4     5 2   
    10     4    14 1   
    11     6    15 1   
    12     6    23 1   
    13     6    24 1   
    14     6    25 1   
    15     7     8 2   
    16     7    11 1   
    17     7    17 1   
    18     8     9 1   
    19     8    19 1   
    20     9    10 1   
    21     9    26 1   
    22     9    27 1   
    23    10    11 1   
    24    10    28 1   
    25    10    29 1   
    26    11    30 1   
    27    11    31 1   
    28    12    32 1   
    29    14    15 1   
    30    15    33 1   
    31    15    34 1   
    32    16    17 1   
    33    16    35 1   
    34    17    18 2   
    35    19    20 1   
    36    19    21 1   
@<TRIPOS>SUBSTRUCTURE
     1 WPQ         1 TEMP              0 ****  ****    0 ROOT
