@<TRIPOS>MOLECULE
WPR
   46    50     1     0     0
SMALL
No Charge or Current Charge


@<TRIPOS>ATOM
      1 C10        -22.5620    -4.8020    79.0650 ca         1 WPR      -0.146000
      2 N12        -20.4180    -3.7500    79.6150 nb         1 WPR      -0.597000
      3 C13        -19.8530    -4.5600    78.7070 ca         1 WPR       0.464000
      4 C24        -22.0490    -9.9440    69.8280 cx         1 WPR      -0.148700
      5 C26        -21.3990   -11.2400    70.2580 cx         1 WPR      -0.124400
      6 C02        -23.4490    -9.0220    72.9810 cc         1 WPR      -0.099300
      7 C03        -23.1910    -7.8870    73.7160 cd         1 WPR      -0.181000
      8 C04        -23.3560    -7.7210    75.1840 ca         1 WPR      -0.025000
      9 C05        -24.2860    -8.4920    75.9230 ca         1 WPR       0.335900
     10 C07        -23.7390    -7.4540    77.9190 ca         1 WPR       0.342900
     11 C08        -22.7650    -6.6370    77.2990 cp         1 WPR      -0.090000
     12 C09        -21.9730    -5.6520    78.0950 cp         1 WPR       0.009000
     13 C11        -21.7620    -3.8780    79.7840 ca         1 WPR       0.321900
     14 C14        -20.5850    -5.4540    77.9850 ca         1 WPR      -0.117200
     15 C16        -18.4820    -5.6560    77.4220 cc         1 WPR       0.429700
     16 C18        -22.5900    -6.7780    75.9010 ca         1 WPR      -0.075000
     17 C19        -22.9080    -6.8650    72.7640 cd         1 WPR       0.281300
     18 C25        -22.0190   -11.1250    68.8850 cx         1 WPR      -0.124400
     19 N06        -24.4860    -8.3660    77.2560 nb         1 WPR      -0.660000
     20 N15        -19.7540    -6.1690    77.1820 na         1 WPR      -0.320600
     21 N17        -18.5130    -4.6710    78.3510 nd         1 WPR      -0.633700
     22 N21        -22.9200    -7.2980    71.5210 nc         1 WPR      -0.520800
     23 N22        -23.2440    -8.6270    71.6550 na         1 WPR       0.121800
     24 H101       -23.6310    -4.8410    79.2560 ha         1 WPR       0.126000
     25 H202       -22.9050    -4.8010    72.1160 hc         1 WPR       0.050367
     26 H201       -23.3190    -5.0230    73.8160 hc         1 WPR       0.050367
     27 H203       -21.6330    -5.2020    73.2760 hc         1 WPR       0.050367
     28 H241       -21.3820    -9.1180    69.5920 hc         1 WPR       0.099700
     29 H262       -21.9100   -11.8620    70.9880 hc         1 WPR       0.073950
     30 H261       -20.3140   -11.2640    70.3250 hc         1 WPR       0.073950
     31 H012       -23.3850   -11.1770    72.7300 hc         1 WPR       0.055367
     32 H011       -23.3660   -10.6500    74.4050 hc         1 WPR       0.055367
     33 H013       -24.8750   -10.5720    73.4680 hc         1 WPR       0.055367
     34 H051       -24.9370    -9.2100    75.4290 h4         1 WPR       0.022100
     35 H071       -23.9170    -7.3810    78.9910 h4         1 WPR       0.026100
     36 H111       -22.2170    -3.2200    80.5240 h4         1 WPR       0.025100
     37 H161       -17.6010    -6.0340    76.9160 h5         1 WPR       0.067800
     38 H181       -21.8500    -6.1680    75.3960 ha         1 WPR       0.121000
     39 H232       -23.9010    -8.8780    69.6880 h1         1 WPR       0.065200
     40 H231       -23.9980   -10.3280    70.6730 h1         1 WPR       0.065200
     41 H252       -22.9480   -11.6620    68.7030 hc         1 WPR       0.073950
     42 H251       -21.3500   -11.0740    68.0290 hc         1 WPR       0.073950
     43 H151       -19.9850    -6.9360    76.5640 hn         1 WPR       0.364000
     44 C23        -23.3630    -9.4640    70.4430 c3         1 WPR       0.122600
     45 C20        -22.6780    -5.3960    73.0090 c3         1 WPR      -0.123400
     46 C01        -23.7890   -10.4290    73.4190 c3         1 WPR      -0.037800
@<TRIPOS>BOND
     1     1    12 ar  
     2     1    13 ar  
     3     1    24 1   
     4     2     3 ar  
     5     2    13 ar  
     6     3    14 ar  
     7     3    21 1   
     8     4     5 1   
     9     4    18 1   
    10     4    28 1   
    11     4    44 1   
    12     5    18 1   
    13     5    29 1   
    14     5    30 1   
    15     6     7 2   
    16     6    23 1   
    17     6    46 1   
    18     7     8 1   
    19     7    17 1   
    20     8     9 ar  
    21     8    16 ar  
    22     9    19 ar  
    23     9    34 1   
    24    10    11 ar  
    25    10    19 ar  
    26    10    35 1   
    27    11    12 1   
    28    11    16 ar  
    29    12    14 ar  
    30    13    36 1   
    31    14    20 1   
    32    15    20 1   
    33    15    21 2   
    34    15    37 1   
    35    16    38 1   
    36    17    22 2   
    37    17    45 1   
    38    18    41 1   
    39    18    42 1   
    40    20    43 1   
    41    22    23 1   
    42    23    44 1   
    43    25    45 1   
    44    26    45 1   
    45    27    45 1   
    46    31    46 1   
    47    32    46 1   
    48    33    46 1   
    49    39    44 1   
    50    40    44 1   
@<TRIPOS>SUBSTRUCTURE
     1 WPR         1 TEMP              0 ****  ****    0 ROOT
