@<TRIPOS>MOLECULE
WPR
   46    50     1     0     0
SMALL
abcg2


@<TRIPOS>ATOM
      1 C10        -22.4070    -4.8930    78.9830 ca         1 WPR      -0.146000
      2 N12        -20.2220    -4.0110    79.5340 nb         1 WPR      -0.597000
      3 C13        -19.7400    -4.8380    78.6070 ca         1 WPR       0.464000
      4 C24        -22.0280    -9.7830    69.9330 cx         1 WPR      -0.148700
      5 C26        -21.1080   -10.8160    70.5210 cx         1 WPR      -0.124400
      6 C02        -23.5470    -9.0200    72.9820 cc         1 WPR      -0.099300
      7 C03        -23.4110    -7.8310    73.6970 cd         1 WPR      -0.181000
      8 C04        -23.5300    -7.6420    75.1430 ca         1 WPR      -0.025000
      9 C05        -24.5520    -8.2560    75.8790 ca         1 WPR       0.335900
     10 C07        -23.8600    -7.3230    77.8500 ca         1 WPR       0.342900
     11 C08        -22.8140    -6.6400    77.2240 cp         1 WPR      -0.090000
     12 C09        -21.9220    -5.7590    78.0000 cp         1 WPR       0.009000
     13 C11        -21.5450    -4.0590    79.7030 ca         1 WPR       0.321900
     14 C14        -20.5390    -5.7100    77.8280 ca         1 WPR      -0.117200
     15 C16        -18.4000    -5.9180    77.3400 cc         1 WPR       0.429700
     16 C18        -22.6540    -6.8200    75.8520 ca         1 WPR      -0.075000
     17 C19        -23.1700    -6.8340    72.7140 cd         1 WPR       0.281300
     18 C25        -21.7440   -11.0490    69.1750 cx         1 WPR      -0.124400
     19 N06        -24.7100    -8.1130    77.1950 nb         1 WPR      -0.660000
     20 N15        -19.6420    -6.3860    77.0310 na         1 WPR      -0.320600
     21 N17        -18.4070    -4.9920    78.2700 nd         1 WPR      -0.633700
     22 N21        -23.1710    -7.3690    71.4980 nc         1 WPR      -0.520800
     23 N22        -23.3960    -8.6950    71.6770 na         1 WPR       0.121800
     24 H101       -23.4680    -4.8450    79.1810 ha         1 WPR       0.126000
     25 H202       -23.1380    -4.8430    71.9600 hc         1 WPR       0.050367
     26 H201       -23.6560    -4.9690    73.6510 hc         1 WPR       0.050367
     27 H203       -21.9550    -5.1380    73.2370 hc         1 WPR       0.050367
     28 H241       -21.5620    -8.8800    69.5580 hc         1 WPR       0.099700
     29 H262       -21.4730   -11.3990    71.3560 hc         1 WPR       0.073950
     30 H261       -20.0500   -10.5910    70.5560 hc         1 WPR       0.073950
     31 H012       -23.1180   -11.1220    72.9740 hc         1 WPR       0.055367
     32 H011       -23.6210   -10.4700    74.5320 hc         1 WPR       0.055367
     33 H013       -24.8140   -10.7300    73.2590 hc         1 WPR       0.055367
     34 H051       -25.2810    -8.8780    75.3730 h4         1 WPR       0.022100
     35 H071       -24.0050    -7.2310    78.9210 h4         1 WPR       0.026100
     36 H111       -21.9600    -3.3920    80.4510 h4         1 WPR       0.025100
     37 H161       -17.5200    -6.2990    76.8440 h5         1 WPR       0.067800
     38 H181       -21.8560    -6.3110    75.3290 ha         1 WPR       0.121000
     39 H232       -24.0660    -9.1230    69.7720 h1         1 WPR       0.065200
     40 H231       -23.8410   -10.5230    70.8150 h1         1 WPR       0.065200
     41 H252       -22.5360   -11.7840    69.1160 hc         1 WPR       0.073950
     42 H251       -21.1200   -10.9850    68.2930 hc         1 WPR       0.073950
     43 H151       -19.8410    -7.1150    76.3650 hn         1 WPR       0.364000
     44 C23        -23.4030    -9.5720    70.5130 c3         1 WPR       0.122600
     45 C20        -22.9690    -5.3660    72.9020 c3         1 WPR      -0.123400
     46 C01        -23.7880   -10.4110    73.4580 c3         1 WPR      -0.037800
@<TRIPOS>BOND
     1     1    12 ar  
     2     1    13 ar  
     3     1    24 1   
     4     2     3 ar  
     5     2    13 ar  
     6     3    14 ar  
     7     3    21 1   
     8     4     5 1   
     9     4    18 1   
    10     4    28 1   
    11     4    44 1   
    12     5    18 1   
    13     5    29 1   
    14     5    30 1   
    15     6     7 2   
    16     6    23 1   
    17     6    46 1   
    18     7     8 1   
    19     7    17 1   
    20     8     9 ar  
    21     8    16 ar  
    22     9    19 ar  
    23     9    34 1   
    24    10    11 ar  
    25    10    19 ar  
    26    10    35 1   
    27    11    12 1   
    28    11    16 ar  
    29    12    14 ar  
    30    13    36 1   
    31    14    20 1   
    32    15    20 1   
    33    15    21 2   
    34    15    37 1   
    35    16    38 1   
    36    17    22 2   
    37    17    45 1   
    38    18    41 1   
    39    18    42 1   
    40    20    43 1   
    41    22    23 1   
    42    23    44 1   
    43    25    45 1   
    44    26    45 1   
    45    27    45 1   
    46    31    46 1   
    47    32    46 1   
    48    33    46 1   
    49    39    44 1   
    50    40    44 1   
@<TRIPOS>SUBSTRUCTURE
     1 WPR         1 TEMP              0 ****  ****    0 ROOT
