@<TRIPOS>MOLECULE
WPS
   15    15     1     0     0
SMALL
abcg2


@<TRIPOS>ATOM
      1 N1          -3.1620    14.8900     1.6380 na         1 WPS      -0.048200
      2 N3          -2.0850    14.7250    -2.9080 n1         1 WPS      -0.489000
      3 C4          -2.1970    14.7740    -1.7590 cg         1 WPS       0.373000
      4 C3          -2.3320    14.8360    -0.3650 cc         1 WPS      -0.238000
      5 C1          -1.3120    14.9930     0.6140 cc         1 WPS       0.336300
      6 C            0.1480    15.1010     0.3630 c3         1 WPS      -0.130400
      7 C2          -3.5240    14.7720     0.3570 cd         1 WPS       0.294000
      8 N2          -4.7940    14.5660    -0.0640 nv         1 WPS      -1.066000
      9 N           -1.8270    15.0260     1.8130 nd         1 WPS      -0.520800
     10 H1          -3.7600    14.8640     2.4460 hn         1 WPS       0.374000
     11 H2           0.6800    15.3340     1.2830 hc         1 WPS       0.055700
     12 H3           0.5480    14.1670    -0.0330 hc         1 WPS       0.055700
     13 H4           0.3660    15.8830    -0.3640 hc         1 WPS       0.055700
     14 H5          -5.5400    14.8990     0.5230 hn         1 WPS       0.473500
     15 H6          -4.9710    14.7560    -1.0360 hn         1 WPS       0.473500
@<TRIPOS>BOND
     1     1     7 1   
     2     1     9 1   
     3     1    10 1   
     4     2     3 3   
     5     3     4 1   
     6     4     5 1   
     7     4     7 2   
     8     5     6 1   
     9     5     9 2   
    10     6    11 1   
    11     6    12 1   
    12     6    13 1   
    13     7     8 1   
    14     8    14 1   
    15     8    15 1   
@<TRIPOS>SUBSTRUCTURE
     1 WPS         1 TEMP              0 ****  ****    0 ROOT
