@<TRIPOS>MOLECULE
WPS
   15    15     1     0     0
SMALL
No Charge or Current Charge


@<TRIPOS>ATOM
      1 N1          -3.1740    14.9230     1.6950 na         1 WPS      -0.048200
      2 N3          -1.9200    14.7050    -2.8730 n1         1 WPS      -0.489000
      3 C4          -2.1260    14.7660    -1.7260 cg         1 WPS       0.373000
      4 C3          -2.3420    14.8480    -0.3280 cc         1 WPS      -0.238000
      5 C1          -1.3350    14.9980     0.6440 cc         1 WPS       0.336300
      6 C            0.1300    15.0920     0.3150 c3         1 WPS      -0.130400
      7 C2          -3.5120    14.8030     0.3480 cd         1 WPS       0.294000
      8 N2          -4.8010    14.6670    -0.0860 nv         1 WPS      -1.066000
      9 N           -1.7930    15.0480     1.8830 nd         1 WPS      -0.520800
     10 H1          -3.8270    14.9220     2.4740 hn         1 WPS       0.374000
     11 H2           0.7350    15.2050     1.2230 hc         1 WPS       0.055700
     12 H3           0.4710    14.1890    -0.2050 hc         1 WPS       0.055700
     13 H4           0.3290    15.9550    -0.3310 hc         1 WPS       0.055700
     14 H5          -5.5850    14.7760     0.5580 hn         1 WPS       0.473500
     15 H6          -5.0120    14.6880    -1.0840 hn         1 WPS       0.473500
@<TRIPOS>BOND
     1     1     7 1   
     2     1     9 1   
     3     1    10 1   
     4     2     3 3   
     5     3     4 1   
     6     4     5 1   
     7     4     7 2   
     8     5     6 1   
     9     5     9 2   
    10     6    11 1   
    11     6    12 1   
    12     6    13 1   
    13     7     8 1   
    14     8    14 1   
    15     8    15 1   
@<TRIPOS>SUBSTRUCTURE
     1 WPS         1 TEMP              0 ****  ****    0 ROOT
