@<TRIPOS>MOLECULE
WPT
   46    48     1     0     0
SMALL
abcg2


@<TRIPOS>ATOM
      1 C10        144.7240   141.3890   172.0880 ca         1 WPT      -0.097000
      2 C11        144.2480   141.2820   173.3900 ca         1 WPT      -0.106000
      3 C12        143.1130   140.5180   173.6610 ca         1 WPT      -0.071300
      4 C13        142.4640   139.8620   172.6180 ca         1 WPT      -0.149000
      5 C01        140.6680   135.5640   170.4400 ca         1 WPT      -0.128000
      6 C02        141.8660   135.8250   171.1000 ca         1 WPT      -0.087000
      7 C03        142.4300   137.0950   171.0680 ca         1 WPT      -0.141000
      8 C04        141.7770   138.1110   170.3750 ca         1 WPT       0.116100
      9 C05        140.5810   137.8640   169.7120 ca         1 WPT      -0.141000
     10 C06        140.0310   136.5870   169.7440 ca         1 WPT      -0.087000
     11 C08        142.9570   139.9620   171.3220 ca         1 WPT       0.111100
     12 C09        144.0850   140.7250   171.0460 ca         1 WPT      -0.125000
     13 C14        142.6060   140.3560   175.0690 c3         1 WPT       0.246100
     14 N15        143.2070   139.1710   175.6780 nu         1 WPT      -0.944200
     15 C16        142.7340   138.6930   176.8950 ca         1 WPT       0.259000
     16 C17        143.0160   137.3700   177.2760 ca         1 WPT      -0.174500
     17 C18        142.5890   136.8790   178.4990 ca         1 WPT      -0.081000
     18 C19        141.8670   137.6720   179.3970 ca         1 WPT      -0.079300
     19 C20        141.5950   138.9830   179.0140 ca         1 WPT      -0.081000
     20 C21        142.0130   139.4950   177.7880 ca         1 WPT      -0.174500
     21 C22        141.3560   137.1040   180.6950 c3         1 WPT      -0.024100
     22 C23        140.0110   136.3720   180.5300 c3         1 WPT      -0.192400
     23 C24        139.5410   135.7520   181.8570 c          1 WPT       0.705000
     24 O25        138.6140   136.3380   182.4770 o          1 WPT      -0.741500
     25 O26        140.1410   134.7110   182.2370 o          1 WPT      -0.741500
     26 H1         145.6020   141.9870   171.8800 ha         1 WPT       0.114000
     27 H2         144.7530   141.7950   174.1990 ha         1 WPT       0.123000
     28 H3         141.5770   139.2740   172.8160 ha         1 WPT       0.131000
     29 H6         143.3630   137.2960   171.5770 ha         1 WPT       0.126500
     30 H7         140.0950   138.6710   169.1790 ha         1 WPT       0.126500
     31 H8         139.0990   136.3960   169.2280 ha         1 WPT       0.115500
     32 H9         144.4460   140.7930   170.0290 ha         1 WPT       0.125000
     33 H10        142.8700   141.2360   175.6580 h1         1 WPT       0.045200
     34 H11        141.5110   140.2820   175.0620 h1         1 WPT       0.045200
     35 H12        143.4090   138.4410   175.0090 hn         1 WPT       0.449000
     36 H13        143.5760   136.7340   176.6000 ha         1 WPT       0.097000
     37 H14        142.8180   135.8520   178.7630 ha         1 WPT       0.114500
     38 H15        141.0380   139.6260   179.6860 ha         1 WPT       0.114500
     39 H16        141.7780   140.5190   177.5340 ha         1 WPT       0.097000
     40 H17        142.0850   136.4020   181.1050 hc         1 WPT       0.048700
     41 H18        141.2340   137.9100   181.4250 hc         1 WPT       0.048700
     42 H19        139.2620   137.0740   180.1600 hc         1 WPT       0.021200
     43 H20        140.1340   135.5780   179.7880 hc         1 WPT       0.021200
     44 O07        142.3140   139.3770   170.2490 os         1 WPT      -0.264200
     45 H4         140.2360   134.5720   170.4680 ha         1 WPT       0.116000
     46 H5         142.3730   135.0340   171.6390 ha         1 WPT       0.115500
@<TRIPOS>BOND
     1     1     2 ar  
     2     1    12 ar  
     3     1    26 1   
     4     2     3 ar  
     5     2    27 1   
     6     3     4 ar  
     7     3    13 1   
     8     4    11 ar  
     9     4    28 1   
    10     5     6 ar  
    11     5    10 ar  
    12     5    45 1   
    13     6     7 ar  
    14     6    46 1   
    15     7     8 ar  
    16     7    29 1   
    17     8     9 ar  
    18     8    44 1   
    19     9    10 ar  
    20     9    30 1   
    21    10    31 1   
    22    11    12 ar  
    23    11    44 1   
    24    12    32 1   
    25    13    14 1   
    26    13    33 1   
    27    13    34 1   
    28    14    15 1   
    29    14    35 1   
    30    15    16 ar  
    31    15    20 ar  
    32    16    17 ar  
    33    16    36 1   
    34    17    18 ar  
    35    17    37 1   
    36    18    19 ar  
    37    18    21 1   
    38    19    20 ar  
    39    19    38 1   
    40    20    39 1   
    41    21    22 1   
    42    21    40 1   
    43    21    41 1   
    44    22    23 1   
    45    22    42 1   
    46    22    43 1   
    47    23    24 1   
    48    23    25 1   
@<TRIPOS>SUBSTRUCTURE
     1 WPT         1 TEMP              0 ****  ****    0 ROOT
