@<TRIPOS>MOLECULE
WPT
   46    48     1     0     0
SMALL
No Charge or Current Charge


@<TRIPOS>ATOM
      1 C10        144.8730   141.2940   172.1570 ca         1 WPT      -0.097000
      2 C11        144.2940   141.1890   173.4340 ca         1 WPT      -0.106000
      3 C12        143.0920   140.4760   173.6150 ca         1 WPT      -0.071300
      4 C13        142.4790   139.8620   172.5050 ca         1 WPT      -0.149000
      5 C01        140.5540   135.6490   170.2130 ca         1 WPT      -0.128000
      6 C02        141.7210   135.8440   170.9730 ca         1 WPT      -0.087000
      7 C03        142.3720   137.0900   170.9530 ca         1 WPT      -0.141000
      8 C04        141.8500   138.1450   170.1770 ca         1 WPT       0.116100
      9 C05        140.6920   137.9430   169.4090 ca         1 WPT      -0.141000
     10 C06        140.0400   136.6970   169.4290 ca         1 WPT      -0.087000
     11 C08        143.0670   139.9540   171.2280 ca         1 WPT       0.111100
     12 C09        144.2560   140.6800   171.0540 ca         1 WPT      -0.125000
     13 C14        142.4600   140.3690   174.9980 c3         1 WPT       0.246100
     14 N15        142.9030   139.1360   175.6650 nu         1 WPT      -0.944200
     15 C16        142.5260   138.6690   176.9240 ca         1 WPT       0.259000
     16 C17        143.0000   137.4190   177.3540 ca         1 WPT      -0.174500
     17 C18        142.6400   136.9170   178.6180 ca         1 WPT      -0.081000
     18 C19        141.8000   137.6650   179.4650 ca         1 WPT      -0.079300
     19 C20        141.3240   138.9170   179.0340 ca         1 WPT      -0.081000
     20 C21        141.6860   139.4170   177.7700 ca         1 WPT      -0.174500
     21 C22        141.4070   137.1220   180.8340 c3         1 WPT      -0.024100
     22 C23        140.1100   136.2810   180.7800 c3         1 WPT      -0.192400
     23 C24        139.7620   135.7600   182.1840 c          1 WPT       0.705000
     24 O25        139.0690   136.4630   182.9050 o          1 WPT      -0.741500
     25 O26        140.2340   134.6900   182.5360 o          1 WPT      -0.741500
     26 H1         145.7990   141.8500   172.0240 ha         1 WPT       0.114000
     27 H2         144.7790   141.6640   174.2850 ha         1 WPT       0.123000
     28 H3         141.5480   139.3160   172.6370 ha         1 WPT       0.131000
     29 H6         143.2800   137.2330   171.5340 ha         1 WPT       0.126500
     30 H7         140.2970   138.7540   168.8010 ha         1 WPT       0.126500
     31 H8         139.1400   136.5430   168.8370 ha         1 WPT       0.115500
     32 H9         144.7020   140.7610   170.0660 ha         1 WPT       0.125000
     33 H10        142.7420   141.2470   175.5980 h1         1 WPT       0.045200
     34 H11        141.3660   140.3730   174.8970 h1         1 WPT       0.045200
     35 H12        143.5140   138.5250   175.1250 hn         1 WPT       0.449000
     36 H13        143.6480   136.8320   176.7110 ha         1 WPT       0.097000
     37 H14        143.0120   135.9460   178.9370 ha         1 WPT       0.114500
     38 H15        140.6720   139.5040   179.6770 ha         1 WPT       0.114500
     39 H16        141.3070   140.3860   177.4570 ha         1 WPT       0.097000
     40 H17        142.2190   136.5060   181.2410 hc         1 WPT       0.048700
     41 H18        141.2710   137.9500   181.5410 hc         1 WPT       0.048700
     42 H19        139.3290   136.9590   180.4150 hc         1 WPT       0.021200
     43 H20        140.3220   135.4460   180.1010 hc         1 WPT       0.021200
     44 O07        142.4760   139.3710   170.1290 os         1 WPT      -0.264200
     45 H4         140.0510   134.6850   170.2290 ha         1 WPT       0.116000
     46 H5         142.1210   135.0300   171.5750 ha         1 WPT       0.115500
@<TRIPOS>BOND
     1     1     2 ar  
     2     1    12 ar  
     3     1    26 1   
     4     2     3 ar  
     5     2    27 1   
     6     3     4 ar  
     7     3    13 1   
     8     4    11 ar  
     9     4    28 1   
    10     5     6 ar  
    11     5    10 ar  
    12     5    45 1   
    13     6     7 ar  
    14     6    46 1   
    15     7     8 ar  
    16     7    29 1   
    17     8     9 ar  
    18     8    44 1   
    19     9    10 ar  
    20     9    30 1   
    21    10    31 1   
    22    11    12 ar  
    23    11    44 1   
    24    12    32 1   
    25    13    14 1   
    26    13    33 1   
    27    13    34 1   
    28    14    15 1   
    29    14    35 1   
    30    15    16 ar  
    31    15    20 ar  
    32    16    17 ar  
    33    16    36 1   
    34    17    18 ar  
    35    17    37 1   
    36    18    19 ar  
    37    18    21 1   
    38    19    20 ar  
    39    19    38 1   
    40    20    39 1   
    41    21    22 1   
    42    21    40 1   
    43    21    41 1   
    44    22    23 1   
    45    22    42 1   
    46    22    43 1   
    47    23    24 1   
    48    23    25 1   
@<TRIPOS>SUBSTRUCTURE
     1 WPT         1 TEMP              0 ****  ****    0 ROOT
