@<TRIPOS>MOLECULE
WPU
   26    28     1     0     0
SMALL
No Charge or Current Charge


@<TRIPOS>ATOM
      1 C11          6.5250     7.4720    21.0980 ca         1 WPU      -0.077000
      2 C15          3.8130     6.8140    21.3940 ca         1 WPU      -0.099000
      3 C16          4.6910     6.6470    22.4750 ca         1 WPU       0.130000
      4 N1           5.6670     7.2560    17.6080 n          1 WPU      -0.364800
      5 C2           6.1500     8.1720    18.6450 c5         1 WPU       0.303000
      6 C3           6.4000     5.9730    17.4810 c5         1 WPU      -0.025300
      7 C4           5.2560     7.7120    16.3680 c          1 WPU       0.601000
      8 C5           5.6540     7.6320    19.9960 ca         1 WPU      -0.081300
      9 S6           7.9750     8.0760    18.3280 ss         1 WPU      -0.453000
     10 C7           7.8530     6.2470    17.9870 c5         1 WPU       0.063600
     11 C8           6.3580     5.7000    15.9550 c          1 WPU       0.567000
     12 N9           5.6340     6.7570    15.4910 ns         1 WPU      -0.477500
     13 O10          4.7200     8.7730    16.1050 o          1 WPU      -0.504000
     14 C12          4.2890     7.3060    20.1660 ca         1 WPU      -0.079000
     15 O13          6.8190     4.7900    15.2860 o          1 WPU      -0.485000
     16 C14          6.0520     6.9800    22.3260 ca         1 WPU       0.123000
     17 Cl17         7.1850     6.7930    23.6660 cl         1 WPU      -0.171000
     18 Cl18         4.0630     6.0270    24.0030 cl         1 WPU      -0.171000
     19 H24          7.5770     7.7300    21.0160 ha         1 WPU       0.141000
     20 H26          2.7610     6.5640    21.5070 ha         1 WPU       0.136000
     21 H19          5.7580     9.1790    18.4460 h2         1 WPU       0.124700
     22 H20          5.9020     5.1480    18.0070 h1         1 WPU       0.110700
     23 H21          8.0390     5.7000    18.9220 h1         1 WPU       0.095700
     24 H22          8.6190     5.9350    17.2640 h1         1 WPU       0.095700
     25 H23          5.4570     6.8680    14.5050 hn         1 WPU       0.362500
     26 H25          3.5910     7.4330    19.3400 ha         1 WPU       0.132000
@<TRIPOS>BOND
     1     1     8 ar  
     2     1    16 ar  
     3     1    19 1   
     4     2     3 ar  
     5     2    14 ar  
     6     2    20 1   
     7     3    16 ar  
     8     3    18 1   
     9     4     5 1   
    10     4     6 1   
    11     4     7 1   
    12     5     8 1   
    13     5     9 1   
    14     5    21 1   
    15     6    10 1   
    16     6    11 1   
    17     6    22 1   
    18     7    12 1   
    19     7    13 2   
    20     8    14 ar  
    21     9    10 1   
    22    10    23 1   
    23    10    24 1   
    24    11    12 1   
    25    11    15 2   
    26    12    25 1   
    27    14    26 1   
    28    16    17 1   
@<TRIPOS>SUBSTRUCTURE
     1 WPU         1 TEMP              0 ****  ****    0 ROOT
