@<TRIPOS>MOLECULE
WPU
   26    28     1     0     0
SMALL
abcg2


@<TRIPOS>ATOM
      1 C11          6.3510     7.9840    21.2150 ca         1 WPU      -0.077000
      2 C15          4.1790     6.2750    21.4350 ca         1 WPU      -0.099000
      3 C16          4.7790     6.7740    22.5820 ca         1 WPU       0.130000
      4 N1           5.6390     7.2760    17.5940 n          1 WPU      -0.364800
      5 C2           6.3110     7.8910    18.7190 c5         1 WPU       0.303000
      6 C3           6.1630     5.9490    17.2380 c5         1 WPU      -0.025300
      7 C4           5.4480     8.0360    16.4510 c          1 WPU       0.601000
      8 C5           5.7550     7.4800    20.0610 ca         1 WPU      -0.081300
      9 S6           8.0840     7.3740    18.4860 ss         1 WPU      -0.453000
     10 C7           7.5190     5.7290    17.9340 c5         1 WPU       0.063600
     11 C8           6.1910     5.9860    15.7140 c          1 WPU       0.567000
     12 N9           5.6760     7.2040    15.3600 ns         1 WPU      -0.477500
     13 O10          5.1520     9.2090    16.3990 o          1 WPU      -0.504000
     14 C12          4.6610     6.6310    20.1810 ca         1 WPU      -0.079000
     15 O13          6.5650     5.1100    14.9690 o          1 WPU      -0.485000
     16 C14          5.8680     7.6400    22.4670 ca         1 WPU       0.123000
     17 CL17         6.6410     8.3040    23.8770 cl         1 WPU      -0.171000
     18 CL18         4.1570     6.3060    24.1360 cl         1 WPU      -0.171000
     19 H24          7.2040     8.6470    21.1460 ha         1 WPU       0.141000
     20 H26          3.3330     5.6080    21.5260 ha         1 WPU       0.136000
     21 H19          6.2740     8.9730    18.6070 h2         1 WPU       0.124700
     22 H20          5.4690     5.1600    17.5340 h1         1 WPU       0.110700
     23 H21          7.3980     5.0710    18.7910 h1         1 WPU       0.095700
     24 H22          8.2580     5.3040    17.2580 h1         1 WPU       0.095700
     25 H23          5.5610     7.5190    14.4060 hn         1 WPU       0.362500
     26 H25          4.1700     6.2460    19.2990 ha         1 WPU       0.132000
@<TRIPOS>BOND
     1     1     8 ar  
     2     1    16 ar  
     3     1    19 1   
     4     2     3 ar  
     5     2    14 ar  
     6     2    20 1   
     7     3    16 ar  
     8     3    18 1   
     9     4     5 1   
    10     4     6 1   
    11     4     7 1   
    12     5     8 1   
    13     5     9 1   
    14     5    21 1   
    15     6    10 1   
    16     6    11 1   
    17     6    22 1   
    18     7    12 1   
    19     7    13 2   
    20     8    14 ar  
    21     9    10 1   
    22    10    23 1   
    23    10    24 1   
    24    11    12 1   
    25    11    15 2   
    26    12    25 1   
    27    14    26 1   
    28    16    17 1   
@<TRIPOS>SUBSTRUCTURE
     1 WPU         1 TEMP              0 ****  ****    0 ROOT
