@<TRIPOS>MOLECULE
WPV
   16    16     1     0     0
SMALL
No Charge or Current Charge


@<TRIPOS>ATOM
      1 N1          -7.4340    15.1000    -0.1090 nb         1 WPV      -0.666000
      2 C4          -6.0930    14.9040    -0.0770 ca         1 WPV       0.363900
      3 C5          -8.0970    15.1100     1.0730 ca         1 WPV       0.344900
      4 C3          -5.3760    14.7160     1.1200 ca         1 WPV      -0.082900
      5 C2          -6.0690    14.7280     2.3410 ca         1 WPV      -0.028000
      6 C1          -7.4630    14.9260     2.3180 ca         1 WPV      -0.138300
      7 C           -8.2680    14.9650     3.6050 c3         1 WPV       0.201100
      8 N           -8.1640    13.6920     4.3420 n8         1 WPV      -1.002200
      9 H1          -5.5800    14.8990    -1.0380 h4         1 WPV       0.035100
     10 H2          -9.1720    15.2730     1.0150 h4         1 WPV       0.019100
     11 H3          -5.5410    14.5860     3.2820 ha         1 WPV       0.154000
     12 H4          -7.8950    15.7770     4.2450 h1         1 WPV       0.039700
     13 H5          -9.3260    15.1620     3.3840 h1         1 WPV       0.039700
     14 H6          -8.7730    13.7360     5.1690 hn         1 WPV       0.401000
     15 H7          -8.5830    12.9450     3.7750 hn         1 WPV       0.401000
     16 Br          -3.4810    14.4480     1.0870 br         1 WPV      -0.083100
@<TRIPOS>BOND
     1     1     2 ar  
     2     1     3 ar  
     3     2     4 ar  
     4     2     9 1   
     5     3     6 ar  
     6     3    10 1   
     7     4     5 ar  
     8     4    16 1   
     9     5     6 ar  
    10     5    11 1   
    11     6     7 1   
    12     7     8 1   
    13     7    12 1   
    14     7    13 1   
    15     8    14 1   
    16     8    15 1   
@<TRIPOS>SUBSTRUCTURE
     1 WPV         1 TEMP              0 ****  ****    0 ROOT
