@<TRIPOS>MOLECULE
WPV
   16    16     1     0     0
SMALL
abcg2


@<TRIPOS>ATOM
      1 N1          -7.3400    15.3700    -0.0780 nb         1 WPV      -0.666000
      2 C4          -6.0550    15.0500    -0.0370 ca         1 WPV       0.363900
      3 C5          -8.0540    15.2840     1.0360 ca         1 WPV       0.344900
      4 C3          -5.4490    14.6280     1.1380 ca         1 WPV      -0.082900
      5 C2          -6.1880    14.5390     2.3050 ca         1 WPV      -0.028000
      6 C1          -7.5340    14.8820     2.2630 ca         1 WPV      -0.138300
      7 C           -8.4030    14.8430     3.4920 c3         1 WPV       0.201100
      8 N           -7.9300    13.8720     4.4590 n8         1 WPV      -1.002200
      9 H1          -5.4960    15.1260    -0.9630 h4         1 WPV       0.035100
     10 H2          -9.1040    15.5440     0.9550 h4         1 WPV       0.019100
     11 H3          -5.7480    14.2050     3.2360 ha         1 WPV       0.154000
     12 H4          -8.3710    15.8300     3.9620 h1         1 WPV       0.039700
     13 H5          -9.4440    14.6960     3.1760 h1         1 WPV       0.039700
     14 H6          -8.4410    13.9860     5.3240 hn         1 WPV       0.401000
     15 H7          -8.1360    12.9360     4.1320 hn         1 WPV       0.401000
     16 BR          -3.6200    14.1760     1.1300 br         1 WPV      -0.083100
@<TRIPOS>BOND
     1     1     2 ar  
     2     1     3 ar  
     3     2     4 ar  
     4     2     9 1   
     5     3     6 ar  
     6     3    10 1   
     7     4     5 ar  
     8     4    16 1   
     9     5     6 ar  
    10     5    11 1   
    11     6     7 1   
    12     7     8 1   
    13     7    12 1   
    14     7    13 1   
    15     8    14 1   
    16     8    15 1   
@<TRIPOS>SUBSTRUCTURE
     1 WPV         1 TEMP              0 ****  ****    0 ROOT
