@<TRIPOS>MOLECULE
WPX
   53    56     1     0     0
SMALL
abcg2


@<TRIPOS>ATOM
      1 C10        -43.8820    48.2340    16.6800 ca         1 WPX      -0.040300
      2 C11        -45.0410    49.0650    16.1980 c3         1 WPX      -0.047800
      3 O1         -40.3830    46.3310    20.2650 o          1 WPX      -0.581100
      4 C7         -41.1600    47.2020    20.6380 c          1 WPX       0.610100
      5 C6         -41.1240    47.6720    22.1010 c3         1 WPX       0.134600
      6 O          -42.2740    48.4680    22.3680 oh         1 WPX      -0.676000
      7 C5         -39.8270    48.4080    22.3620 ca         1 WPX      -0.109300
      8 C3         -39.6510    49.7140    21.9040 ca         1 WPX      -0.110000
      9 C2         -38.4510    50.3770    22.1300 ca         1 WPX      -0.086000
     10 C1         -37.4090    49.7470    22.8060 ca         1 WPX      -0.134000
     11 C4         -38.7950    47.7670    23.0410 ca         1 WPX      -0.116000
     12 C          -37.6100    48.4520    23.2440 ca         1 WPX       0.166000
     13 F          -36.6070    47.8230    23.9090 f          1 WPX      -0.179000
     14 N          -42.0740    47.8310    19.8700 ns         1 WPX      -0.131000
     15 C8         -42.3940    47.6270    18.5160 ca         1 WPX      -0.020000
     16 C12        -41.7070    46.7480    17.6790 ca         1 WPX      -0.137000
     17 C13        -42.1220    46.6170    16.3620 ca         1 WPX      -0.084000
     18 C14        -43.1990    47.3370    15.8340 ca         1 WPX      -0.047800
     19 C9         -43.4660    48.3600    18.0010 ca         1 WPX      -0.166000
     20 C15        -43.5790    47.1270    14.4260 cc         1 WPX      -0.048400
     21 C22        -42.7280    47.1830    13.2630 ca         1 WPX      -0.248800
     22 C18        -43.5170    46.8330    12.1500 ca         1 WPX       0.154500
     23 N1         -44.7840    46.5790    12.5880 na         1 WPX      -0.192400
     24 C17        -45.9010    46.1800    11.7500 c3         1 WPX       0.074900
     25 C16        -44.8180    46.7590    13.9580 cd         1 WPX      -0.160100
     26 C21        -41.4020    47.5530    12.9520 ca         1 WPX       0.431900
     27 N4         -40.5110    47.9640    13.8840 nv         1 WPX      -1.072900
     28 N3         -40.9760    47.4910    11.6800 nb         1 WPX      -0.306000
     29 C19        -41.8250    47.1010    10.7120 ca         1 WPX       0.192300
     30 N2         -43.1050    46.7740    10.8750 nb         1 WPX      -0.236000
     31 C20        -41.2590    47.0410     9.3230 c3         1 WPX      -0.129400
     32 H1         -45.9620    48.4770    16.1550 hc         1 WPX       0.044367
     33 H2         -45.2150    49.9040    16.8710 hc         1 WPX       0.044367
     34 H3         -44.8610    49.4480    15.1930 hc         1 WPX       0.044367
     35 H4         -41.1450    46.7580    22.7020 h1         1 WPX       0.076700
     36 H5         -42.1480    48.9290    23.2060 ho         1 WPX       0.466000
     37 H6         -40.4540    50.2110    21.3750 ha         1 WPX       0.124000
     38 H7         -38.3180    51.3910    21.7740 ha         1 WPX       0.122000
     39 H8         -36.4670    50.2450    22.9920 ha         1 WPX       0.136000
     40 H9         -38.9080    46.7570    23.4110 ha         1 WPX       0.139000
     41 H10        -42.6400    48.5100    20.3640 hn         1 WPX       0.174000
     42 H11        -40.8770    46.1740    18.0540 ha         1 WPX       0.151000
     43 H12        -41.5980    45.9200    15.7200 ha         1 WPX       0.127000
     44 H13        -43.9850    49.0540    18.6520 ha         1 WPX       0.111000
     45 H14        -46.7780    46.0550    12.3800 h1         1 WPX       0.053033
     46 H15        -46.1040    46.9430    10.9980 h1         1 WPX       0.053033
     47 H16        -45.6830    45.2370    11.2470 h1         1 WPX       0.053033
     48 H17        -45.7330    46.5880    14.4990 h4         1 WPX       0.217000
     49 H18        -39.6410    48.3580    13.5660 hn         1 WPX       0.496500
     50 H19        -40.8190    48.1910    14.8130 hn         1 WPX       0.496500
     51 H20        -42.0270    46.7550     8.6070 hc         1 WPX       0.056367
     52 H21        -40.8450    48.0100     9.0390 hc         1 WPX       0.056367
     53 H22        -40.4430    46.3160     9.2800 hc         1 WPX       0.056367
@<TRIPOS>BOND
     1     1     2 1   
     2     1    18 ar  
     3     1    19 ar  
     4     2    32 1   
     5     2    33 1   
     6     2    34 1   
     7     3     4 2   
     8     4     5 1   
     9     4    14 1   
    10     5     6 1   
    11     5     7 1   
    12     5    35 1   
    13     6    36 1   
    14     7     8 ar  
    15     7    11 ar  
    16     8     9 ar  
    17     8    37 1   
    18     9    10 ar  
    19     9    38 1   
    20    10    12 ar  
    21    10    39 1   
    22    11    12 ar  
    23    11    40 1   
    24    12    13 1   
    25    14    15 1   
    26    14    41 1   
    27    15    16 ar  
    28    15    19 ar  
    29    16    17 ar  
    30    16    42 1   
    31    17    18 ar  
    32    17    43 1   
    33    18    20 1   
    34    19    44 1   
    35    20    21 1   
    36    20    25 2   
    37    21    22 ar  
    38    21    26 ar  
    39    22    23 1   
    40    22    30 ar  
    41    23    24 1   
    42    23    25 1   
    43    24    45 1   
    44    24    46 1   
    45    24    47 1   
    46    25    48 1   
    47    26    27 1   
    48    26    28 ar  
    49    27    49 1   
    50    27    50 1   
    51    28    29 ar  
    52    29    30 ar  
    53    29    31 1   
    54    31    51 1   
    55    31    52 1   
    56    31    53 1   
@<TRIPOS>SUBSTRUCTURE
     1 WPX         1 TEMP              0 ****  ****    0 ROOT
