@<TRIPOS>MOLECULE
WPX
   53    56     1     0     0
SMALL
No Charge or Current Charge


@<TRIPOS>ATOM
      1 C10        -43.7230    48.2690    16.6400 ca         1 WPX      -0.040300
      2 C11        -44.7280    49.2780    16.0920 c3         1 WPX      -0.047800
      3 O1         -40.6320    45.8720    20.4460 o          1 WPX      -0.581100
      4 C7         -41.2250    46.9010    20.7640 c          1 WPX       0.610100
      5 C6         -41.1130    47.5070    22.2000 c3         1 WPX       0.134600
      6 O          -42.2800    48.2730    22.5950 oh         1 WPX      -0.676000
      7 C5         -39.8630    48.3770    22.3370 ca         1 WPX      -0.109300
      8 C3         -39.7770    49.6250    21.6800 ca         1 WPX      -0.110000
      9 C2         -38.6220    50.4180    21.8030 ca         1 WPX      -0.086000
     10 C1         -37.5420    49.9710    22.5840 ca         1 WPX      -0.134000
     11 C4         -38.7740    47.9370    23.1180 ca         1 WPX      -0.116000
     12 C          -37.6230    48.7320    23.2380 ca         1 WPX       0.166000
     13 F          -36.5850    48.3020    23.9880 f          1 WPX      -0.179000
     14 N          -42.0400    47.6270    19.9040 ns         1 WPX      -0.131000
     15 C8         -42.3870    47.4610    18.5340 ca         1 WPX      -0.020000
     16 C12        -41.8380    46.4620    17.7040 ca         1 WPX      -0.137000
     17 C13        -42.2310    46.3650    16.3600 ca         1 WPX      -0.084000
     18 C14        -43.1720    47.2590    15.8180 ca         1 WPX      -0.047800
     19 C9         -43.3240    48.3580    17.9890 ca         1 WPX      -0.166000
     20 C15        -43.5560    47.1160    14.4150 cc         1 WPX      -0.048400
     21 C22        -42.7580    47.1750    13.2250 ca         1 WPX      -0.248800
     22 C18        -43.5730    46.8800    12.1580 ca         1 WPX       0.154500
     23 N1         -44.8580    46.6300    12.6340 na         1 WPX      -0.192400
     24 C17        -45.9880    46.2630    11.7660 c3         1 WPX       0.074900
     25 C16        -44.8410    46.7660    14.0410 cd         1 WPX      -0.160100
     26 C21        -41.4150    47.4880    13.0030 ca         1 WPX       0.431900
     27 N4         -40.5560    47.8200    13.9960 nv         1 WPX      -1.072900
     28 N3         -40.9110    47.4940    11.7610 nb         1 WPX      -0.306000
     29 C19        -41.7730    47.1810    10.7630 ca         1 WPX       0.192300
     30 N2         -43.0880    46.8770    10.9000 nb         1 WPX      -0.236000
     31 C20        -41.2170    47.1890     9.3500 c3         1 WPX      -0.129400
     32 H1         -45.7200    48.8260    15.9870 hc         1 WPX       0.044367
     33 H2         -44.8290    50.1470    16.7520 hc         1 WPX       0.044367
     34 H3         -44.4210    49.6540    15.1090 hc         1 WPX       0.044367
     35 H4         -41.0080    46.6420    22.8700 h1         1 WPX       0.076700
     36 H5         -42.0900    48.6440    23.4870 ho         1 WPX       0.466000
     37 H6         -40.6060    49.9850    21.0750 ha         1 WPX       0.124000
     38 H7         -38.5650    51.3780    21.2940 ha         1 WPX       0.122000
     39 H8         -36.6470    50.5790    22.6820 ha         1 WPX       0.136000
     40 H9         -38.8130    46.9800    23.6320 ha         1 WPX       0.139000
     41 H10        -42.4750    48.4260    20.3460 hn         1 WPX       0.174000
     42 H11        -41.1060    45.7530    18.0770 ha         1 WPX       0.151000
     43 H12        -41.8050    45.5860    15.7310 ha         1 WPX       0.127000
     44 H13        -43.7480    49.1350    18.6210 ha         1 WPX       0.111000
     45 H14        -46.8920    46.1230    12.3700 h1         1 WPX       0.053033
     46 H15        -46.1630    47.0600    11.0320 h1         1 WPX       0.053033
     47 H16        -45.7580    45.3290    11.2380 h1         1 WPX       0.053033
     48 H17        -45.7180    46.5920    14.6570 h4         1 WPX       0.217000
     49 H18        -39.6890    48.2860    13.7470 hn         1 WPX       0.496500
     50 H19        -40.9470    48.0200    14.9120 hn         1 WPX       0.496500
     51 H20        -41.7500    46.4810     8.7050 hc         1 WPX       0.056367
     52 H21        -41.3100    48.1860     8.9030 hc         1 WPX       0.056367
     53 H22        -40.1560    46.9120     9.3350 hc         1 WPX       0.056367
@<TRIPOS>BOND
     1     1     2 1   
     2     1    18 ar  
     3     1    19 ar  
     4     2    32 1   
     5     2    33 1   
     6     2    34 1   
     7     3     4 2   
     8     4     5 1   
     9     4    14 1   
    10     5     6 1   
    11     5     7 1   
    12     5    35 1   
    13     6    36 1   
    14     7     8 ar  
    15     7    11 ar  
    16     8     9 ar  
    17     8    37 1   
    18     9    10 ar  
    19     9    38 1   
    20    10    12 ar  
    21    10    39 1   
    22    11    12 ar  
    23    11    40 1   
    24    12    13 1   
    25    14    15 1   
    26    14    41 1   
    27    15    16 ar  
    28    15    19 ar  
    29    16    17 ar  
    30    16    42 1   
    31    17    18 ar  
    32    17    43 1   
    33    18    20 1   
    34    19    44 1   
    35    20    21 1   
    36    20    25 2   
    37    21    22 ar  
    38    21    26 ar  
    39    22    23 1   
    40    22    30 ar  
    41    23    24 1   
    42    23    25 1   
    43    24    45 1   
    44    24    46 1   
    45    24    47 1   
    46    25    48 1   
    47    26    27 1   
    48    26    28 ar  
    49    27    49 1   
    50    27    50 1   
    51    28    29 ar  
    52    29    30 ar  
    53    29    31 1   
    54    31    51 1   
    55    31    52 1   
    56    31    53 1   
@<TRIPOS>SUBSTRUCTURE
     1 WPX         1 TEMP              0 ****  ****    0 ROOT
