@<TRIPOS>MOLECULE
WPY
   15    15     1     0     0
SMALL
bcc


@<TRIPOS>ATOM
      1 N1          -1.1670    14.6090     1.8610 nc         1 WPY      -0.710000
      2 C4          -0.2380    14.6720    -0.2470 cd         1 WPY      -0.251400
      3 O           -4.6160    14.5860    -0.2870 o          1 WPY      -0.570100
      4 C1          -4.6410    14.5590     0.9290 c          1 WPY       0.672100
      5 C           -5.8940    14.4920     1.7510 c3         1 WPY      -0.175100
      6 N           -3.4860    14.5770     1.6540 ns         1 WPY      -0.542400
      7 C2          -2.2240    14.6090     1.1150 cd         1 WPY       0.533300
      8 S           -1.9280    14.6530    -0.5900 ss         1 WPY      -0.091300
      9 C3          -0.0380    14.6450     1.0910 cc         1 WPY       0.368200
     10 H1           0.4950    14.7020    -1.0360 h4         1 WPY       0.177000
     11 H2          -6.7690    14.5690     1.1110 hc         1 WPY       0.069700
     12 H3          -5.9380    13.5450     2.2920 hc         1 WPY       0.069700
     13 H4          -5.9210    15.2920     2.4900 hc         1 WPY       0.069700
     14 H5          -3.5270    14.5510     2.6630 hn         1 WPY       0.339500
     15 H6           0.9300    14.6480     1.5710 h4         1 WPY       0.039100
@<TRIPOS>BOND
     1     1     7 2   
     2     1     9 1   
     3     2     8 1   
     4     2     9 2   
     5     2    10 1   
     6     3     4 2   
     7     4     5 1   
     8     4     6 1   
     9     5    11 1   
    10     5    12 1   
    11     5    13 1   
    12     6     7 1   
    13     6    14 1   
    14     7     8 1   
    15     9    15 1   
@<TRIPOS>SUBSTRUCTURE
     1 WPY         1 TEMP              0 ****  ****    0 ROOT
