@<TRIPOS>MOLECULE
WPY
   15    15     1     0     0
SMALL
No Charge or Current Charge


@<TRIPOS>ATOM
      1 N1          -1.2040    14.5820     1.8380 nc         1 WPY      -0.710000
      2 C4          -0.1470    14.6880    -0.2310 cd         1 WPY      -0.313000
      3 O           -4.8180    14.6070    -0.3370 o          1 WPY      -0.570100
      4 C1          -4.7040    14.5580     0.8770 c          1 WPY       0.605100
      5 C           -5.9170    14.4970     1.7960 c3         1 WPY      -0.175100
      6 N           -3.4990    14.5530     1.5310 ns         1 WPY      -0.475400
      7 C2          -2.2360    14.5980     1.0120 cd         1 WPY       0.533300
      8 S           -1.8330    14.6780    -0.7100 ss         1 WPY       0.053600
      9 C3          -0.0270    14.6330     1.1330 cc         1 WPY       0.302900
     10 H1           0.6440    14.7340    -0.9690 h4         1 WPY       0.159000
     11 H2          -6.8630    14.5030     1.2440 hc         1 WPY       0.069700
     12 H3          -5.8320    13.6170     2.4430 hc         1 WPY       0.069700
     13 H4          -5.8630    15.3230     2.5150 hc         1 WPY       0.069700
     14 H5          -3.5660    14.5100     2.5370 hn         1 WPY       0.339500
     15 H6           0.9030    14.6270     1.6880 h4         1 WPY       0.039100
@<TRIPOS>BOND
     1     1     7 2   
     2     1     9 1   
     3     2     8 1   
     4     2     9 2   
     5     2    10 1   
     6     3     4 2   
     7     4     5 1   
     8     4     6 1   
     9     5    11 1   
    10     5    12 1   
    11     5    13 1   
    12     6     7 1   
    13     6    14 1   
    14     7     8 1   
    15     9    15 1   
@<TRIPOS>SUBSTRUCTURE
     1 WPY         1 TEMP              0 ****  ****    0 ROOT
