@<TRIPOS>MOLECULE
WPZ
   23    24     1     0     0
SMALL
abcg2


@<TRIPOS>ATOM
      1 C10          1.9520     6.4570    18.3600 ca         1 WPZ      -0.062500
      2 C11          3.1620     4.4000    18.7060 ca         1 WPZ      -0.062500
      3 C13          0.9480     6.0060    19.2050 ca         1 WPZ      -0.126000
      4 N1           5.0830     5.2420    16.8160 nb         1 WPZ      -0.252000
      5 C2           4.1460     6.1310    17.2030 cp         1 WPZ       0.174500
      6 C3           6.0210     5.6910    16.0240 ca         1 WPZ       0.317300
      7 N4           4.1330     7.4060    16.8300 nb         1 WPZ      -0.112000
      8 N5           5.0960     7.8490    16.0150 nb         1 WPZ      -0.274000
      9 C6           6.0480     7.0430    15.5920 ca         1 WPZ       0.243300
     10 C7           3.0710     5.6570    18.1010 cp         1 WPZ      -0.160500
     11 O8           6.9840     4.8740    15.5980 oh         1 WPZ      -0.628300
     12 C9           7.1090     7.5660    14.6860 c3         1 WPZ      -0.132400
     13 C12          2.1580     3.9540    19.5560 ca         1 WPZ      -0.126000
     14 C14          1.0490     4.7550    19.8080 ca         1 WPZ      -0.086000
     15 H19          1.8740     7.4270    17.8910 ha         1 WPZ       0.132500
     16 H20          4.0240     3.7780    18.5100 ha         1 WPZ       0.132500
     17 H22          0.0850     6.6310    19.3930 ha         1 WPZ       0.117000
     18 H15          6.8390     3.9880    15.9740 ho         1 WPZ       0.493000
     19 H16          6.9290     8.6180    14.4770 hc         1 WPZ       0.060700
     20 H18          8.0950     7.4530    15.1430 hc         1 WPZ       0.060700
     21 H17          7.1240     7.0080    13.7470 hc         1 WPZ       0.060700
     22 H21          2.2440     2.9810    20.0230 ha         1 WPZ       0.117000
     23 H23          0.2650     4.4060    20.4690 ha         1 WPZ       0.114000
@<TRIPOS>BOND
     1     1     3 ar  
     2     1    10 ar  
     3     1    15 1   
     4     2    10 ar  
     5     2    13 ar  
     6     2    16 1   
     7     3    14 ar  
     8     3    17 1   
     9     4     5 ar  
    10     4     6 ar  
    11     5     7 ar  
    12     5    10 1   
    13     6     9 ar  
    14     6    11 1   
    15     7     8 ar  
    16     8     9 ar  
    17     9    12 1   
    18    11    18 1   
    19    12    19 1   
    20    12    20 1   
    21    12    21 1   
    22    13    14 ar  
    23    13    22 1   
    24    14    23 1   
@<TRIPOS>SUBSTRUCTURE
     1 WPZ         1 TEMP              0 ****  ****    0 ROOT
