@<TRIPOS>MOLECULE
WPZ
   23    24     1     0     0
SMALL
No Charge or Current Charge


@<TRIPOS>ATOM
      1 C10          1.9750     6.4840    18.4550 ca         1 WPZ      -0.062500
      2 C11          3.0780     4.3280    18.6460 ca         1 WPZ      -0.062500
      3 C13          0.9560     6.0370    19.3150 ca         1 WPZ      -0.126000
      4 N1           5.1650     5.2650    16.8770 nb         1 WPZ      -0.252000
      5 C2           4.1590     6.1200    17.1750 cp         1 WPZ       0.174500
      6 C3           6.1260     5.7210    16.0510 ca         1 WPZ       0.317300
      7 N4           4.0840     7.3830    16.6870 nb         1 WPZ      -0.112000
      8 N5           5.0390     7.8550    15.8590 nb         1 WPZ      -0.274000
      9 C6           6.0690     7.0410    15.5280 ca         1 WPZ       0.243300
     10 C7           3.0650     5.6410    18.0970 cp         1 WPZ      -0.160500
     11 O8           7.1410     4.8540    15.7520 oh         1 WPZ      -0.628300
     12 C9           7.1290     7.6050    14.5910 c3         1 WPZ      -0.132400
     13 C12          2.0580     3.8840    19.5060 ca         1 WPZ      -0.126000
     14 C14          0.9960     4.7370    19.8410 ca         1 WPZ      -0.086000
     15 H19          1.9090     7.4990    18.0680 ha         1 WPZ       0.132500
     16 H20          3.8850     3.6380    18.4090 ha         1 WPZ       0.132500
     17 H22          0.1340     6.7010    19.5730 ha         1 WPZ       0.117000
     18 H15          6.9510     4.0190    16.2330 ho         1 WPZ       0.493000
     19 H16          6.9080     8.6380    14.2970 hc         1 WPZ       0.060700
     20 H18          8.1150     7.5990    15.0720 hc         1 WPZ       0.060700
     21 H17          7.1980     7.0050    13.6760 hc         1 WPZ       0.060700
     22 H21          2.0920     2.8760    19.9120 ha         1 WPZ       0.117000
     23 H23          0.2070     4.3920    20.5060 ha         1 WPZ       0.114000
@<TRIPOS>BOND
     1     1     3 ar  
     2     1    10 ar  
     3     1    15 1   
     4     2    10 ar  
     5     2    13 ar  
     6     2    16 1   
     7     3    14 ar  
     8     3    17 1   
     9     4     5 ar  
    10     4     6 ar  
    11     5     7 ar  
    12     5    10 1   
    13     6     9 ar  
    14     6    11 1   
    15     7     8 ar  
    16     8     9 ar  
    17     9    12 1   
    18    11    18 1   
    19    12    19 1   
    20    12    20 1   
    21    12    21 1   
    22    13    14 ar  
    23    13    22 1   
    24    14    23 1   
@<TRIPOS>SUBSTRUCTURE
     1 WPZ         1 TEMP              0 ****  ****    0 ROOT
