@<TRIPOS>MOLECULE
WQ1
   18    18     1     0     0
SMALL
abcg2


@<TRIPOS>ATOM
      1 N1          -6.9040    15.2060    -1.1620 nb         1 WQ1      -0.668000
      2 C4          -6.1570    14.3640     2.4180 c3         1 WQ1       0.213900
      3 C5          -6.9970    14.8410     0.1120 ca         1 WQ1       0.350900
      4 C6          -5.6990    15.5360    -1.6060 ca         1 WQ1       0.341900
      5 C7          -4.5620    15.5100    -0.8120 ca         1 WQ1      -0.172000
      6 C1          -3.4440    15.0890     1.3970 c3         1 WQ1      -0.053800
      7 C2          -4.6570    15.1260     0.5200 ca         1 WQ1      -0.011300
      8 C3          -5.9280    14.7770     0.9960 ca         1 WQ1      -0.144300
      9 O1          -5.9730    15.4880     3.2530 oh         1 WQ1      -0.654000
     10 H1          -7.1690    13.9510     2.5140 h1         1 WQ1       0.025700
     11 H2          -5.4630    13.5550     2.6810 h1         1 WQ1       0.025700
     12 H3          -7.9900    14.5760     0.4640 h4         1 WQ1       0.016100
     13 H4          -5.6270    15.8350    -2.6460 h4         1 WQ1       0.018100
     14 H5          -3.6050    15.7870    -1.2370 ha         1 WQ1       0.121000
     15 H6          -3.4870    15.8730     2.1530 hc         1 WQ1       0.049367
     16 H7          -3.3670    14.1400     1.9290 hc         1 WQ1       0.049367
     17 H8          -2.5340    15.2250     0.8150 hc         1 WQ1       0.049367
     18 H9          -5.9240    15.1770     4.1620 ho         1 WQ1       0.442000
@<TRIPOS>BOND
     1     1     3 ar  
     2     1     4 ar  
     3     2     8 1   
     4     2     9 1   
     5     2    10 1   
     6     2    11 1   
     7     3     8 ar  
     8     3    12 1   
     9     4     5 ar  
    10     4    13 1   
    11     5     7 ar  
    12     5    14 1   
    13     6     7 1   
    14     6    15 1   
    15     6    16 1   
    16     6    17 1   
    17     7     8 ar  
    18     9    18 1   
@<TRIPOS>SUBSTRUCTURE
     1 WQ1         1 TEMP              0 ****  ****    0 ROOT
