@<TRIPOS>MOLECULE
WQ1
   18    18     1     0     0
SMALL
No Charge or Current Charge


@<TRIPOS>ATOM
      1 N1          -6.9340    15.2620    -1.1380 nb         1 WQ1      -0.668000
      2 C4          -6.1180    14.3880     2.4660 c3         1 WQ1       0.213900
      3 C5          -7.0180    14.9050     0.1650 ca         1 WQ1       0.350900
      4 C6          -5.7080    15.5410    -1.6330 ca         1 WQ1       0.341900
      5 C7          -4.5390    15.4740    -0.8580 ca         1 WQ1      -0.172000
      6 C1          -3.3590    15.0290     1.3460 c3         1 WQ1      -0.053800
      7 C2          -4.6220    15.1030     0.4960 ca         1 WQ1      -0.011300
      8 C3          -5.9020    14.8080     1.0190 ca         1 WQ1      -0.144300
      9 O1          -6.2500    15.5440     3.2980 oh         1 WQ1      -0.654000
     10 H1          -7.0240    13.7710     2.5320 h1         1 WQ1       0.025700
     11 H2          -5.2790    13.7650     2.8040 h1         1 WQ1       0.025700
     12 H3          -8.0190    14.6860     0.5340 h4         1 WQ1       0.016100
     13 H4          -5.6620    15.8260    -2.6840 h4         1 WQ1       0.018100
     14 H5          -3.5830    15.7110    -1.3150 ha         1 WQ1       0.121000
     15 H6          -3.4560    15.6360     2.2530 hc         1 WQ1       0.049367
     16 H7          -3.1490    13.9960     1.6500 hc         1 WQ1       0.049367
     17 H8          -2.4810    15.3950     0.8010 hc         1 WQ1       0.049367
     18 H9          -6.3840    15.2170     4.2160 ho         1 WQ1       0.442000
@<TRIPOS>BOND
     1     1     3 ar  
     2     1     4 ar  
     3     2     8 1   
     4     2     9 1   
     5     2    10 1   
     6     2    11 1   
     7     3     8 ar  
     8     3    12 1   
     9     4     5 ar  
    10     4    13 1   
    11     5     7 ar  
    12     5    14 1   
    13     6     7 1   
    14     6    15 1   
    15     6    16 1   
    16     6    17 1   
    17     7     8 ar  
    18     9    18 1   
@<TRIPOS>SUBSTRUCTURE
     1 WQ1         1 TEMP              0 ****  ****    0 ROOT
