@<TRIPOS>MOLECULE
WQ2
   56    59     1     0     0
SMALL
abcg2


@<TRIPOS>ATOM
      1 C1         -43.1130    46.8450   -12.1800 ca         1 WQ2      -0.047800
      2 C2         -43.9390    47.6800   -11.4010 ca         1 WQ2      -0.039300
      3 C3         -43.6190    47.8830   -10.0640 ca         1 WQ2      -0.164000
      4 C4         -42.5070    47.2830    -9.4670 ca         1 WQ2      -0.022000
      5 F2         -37.4060    52.0930    -5.4740 f          1 WQ2      -0.112000
      6 F          -39.5530    52.3850    -5.3940 f          1 WQ2      -0.112000
      7 F1         -38.6170    51.7520    -7.2410 f          1 WQ2      -0.112000
      8 C12        -38.7720    50.1500    -5.4980 ca         1 WQ2      -0.193300
      9 C11        -39.9790    49.5300    -5.8120 ca         1 WQ2      -0.043000
     10 C13        -37.7660    49.4550    -4.8370 ca         1 WQ2      -0.048000
     11 C14        -37.9770    48.1270    -4.4820 ca         1 WQ2      -0.115000
     12 C15        -39.1820    47.5070    -4.7850 ca         1 WQ2      -0.049000
     13 C10        -40.1880    48.2030    -5.4530 ca         1 WQ2      -0.137300
     14 C9         -41.4870    47.5080    -5.8100 c3         1 WQ2       0.136600
     15 O1         -42.6220    48.3520    -5.6780 oh         1 WQ2      -0.676000
     16 C8         -41.4090    46.9830    -7.2530 c          1 WQ2       0.611100
     17 O          -40.5900    46.1170    -7.5360 o          1 WQ2      -0.582100
     18 N          -42.2860    47.5550    -8.1050 ns         1 WQ2      -0.129000
     19 C5         -41.6780    46.4680   -10.2390 ca         1 WQ2      -0.137000
     20 C          -41.9960    46.2630   -11.5740 ca         1 WQ2      -0.083000
     21 C6         -45.1490    48.3640   -11.9790 c3         1 WQ2      -0.047800
     22 C7         -43.3870    46.5680   -13.6020 cc         1 WQ2      -0.049400
     23 C18        -44.5280    46.0100   -14.1260 cd         1 WQ2      -0.160100
     24 N1         -44.4010    45.8440   -15.4930 na         1 WQ2      -0.192400
     25 C21        -45.4010    45.2800   -16.3830 c3         1 WQ2       0.075900
     26 C17        -43.1730    46.3020   -15.8710 ca         1 WQ2       0.154500
     27 N3         -42.6980    46.3220   -17.1250 nb         1 WQ2      -0.236000
     28 C20        -41.4810    46.8520   -17.2270 ca         1 WQ2       0.192300
     29 C22        -40.8540    46.9040   -18.5890 c3         1 WQ2      -0.130400
     30 N2         -40.7500    47.3600   -16.2180 nb         1 WQ2      -0.305000
     31 C19        -41.2390    47.3400   -14.9690 ca         1 WQ2       0.430900
     32 C16        -42.5040    46.7650   -14.7230 ca         1 WQ2      -0.248800
     33 N4         -40.4680    47.8710   -13.9900 nv         1 WQ2      -1.070900
     34 H1         -44.2490    48.5300    -9.4640 ha         1 WQ2       0.112000
     35 H2         -40.7570    50.0780    -6.3270 ha         1 WQ2       0.136000
     36 H3         -36.8320    49.9420    -4.5950 ha         1 WQ2       0.135000
     37 H4         -37.2030    47.5810    -3.9610 ha         1 WQ2       0.127000
     38 H5         -39.3490    46.4770    -4.4980 ha         1 WQ2       0.127000
     39 H6         -41.5940    46.6190    -5.1810 h1         1 WQ2       0.071700
     40 H7         -42.6470    48.7090    -4.7810 ho         1 WQ2       0.468000
     41 H8         -42.9100    48.2250    -7.6770 hn         1 WQ2       0.175000
     42 H9         -40.8130    46.0000    -9.8020 ha         1 WQ2       0.150000
     43 H10        -41.3580    45.6200   -12.1670 ha         1 WQ2       0.127000
     44 H11        -45.9870    47.6700   -12.0790 hc         1 WQ2       0.045367
     45 H12        -45.4700    49.1830   -11.3360 hc         1 WQ2       0.045367
     46 H13        -44.9420    48.7570   -12.9750 hc         1 WQ2       0.045367
     47 H14        -45.4290    45.6950   -13.6270 h4         1 WQ2       0.217000
     48 H15        -46.2770    45.0160   -15.7960 h1         1 WQ2       0.052700
     49 H16        -45.6850    46.0070   -17.1440 h1         1 WQ2       0.052700
     50 H17        -45.0140    44.3870   -16.8740 h1         1 WQ2       0.052700
     51 H18        -41.5310    46.5020   -19.3400 hc         1 WQ2       0.056367
     52 H19        -40.5970    47.9330   -18.8500 hc         1 WQ2       0.056367
     53 H20        -39.9260    46.3270   -18.6000 hc         1 WQ2       0.056367
     54 H21        -39.6630    48.4110   -14.2640 hn         1 WQ2       0.495500
     55 H22        -40.8580    48.0420   -13.0790 hn         1 WQ2       0.495500
     56 C23        -38.5800    51.5840    -5.8950 c3         1 WQ2       0.344300
@<TRIPOS>BOND
     1     1     2 ar  
     2     1    20 ar  
     3     1    22 1   
     4     2     3 ar  
     5     2    21 1   
     6     3     4 ar  
     7     3    34 1   
     8     4    18 1   
     9     4    19 ar  
    10     5    56 1   
    11     6    56 1   
    12     7    56 1   
    13     8     9 ar  
    14     8    10 ar  
    15     8    56 1   
    16     9    13 ar  
    17     9    35 1   
    18    10    11 ar  
    19    10    36 1   
    20    11    12 ar  
    21    11    37 1   
    22    12    13 ar  
    23    12    38 1   
    24    13    14 1   
    25    14    15 1   
    26    14    16 1   
    27    14    39 1   
    28    15    40 1   
    29    16    17 2   
    30    16    18 1   
    31    18    41 1   
    32    19    20 ar  
    33    19    42 1   
    34    20    43 1   
    35    21    44 1   
    36    21    45 1   
    37    21    46 1   
    38    22    23 2   
    39    22    32 1   
    40    23    24 1   
    41    23    47 1   
    42    24    25 1   
    43    24    26 1   
    44    25    48 1   
    45    25    49 1   
    46    25    50 1   
    47    26    27 ar  
    48    26    32 ar  
    49    27    28 ar  
    50    28    29 1   
    51    28    30 ar  
    52    29    51 1   
    53    29    52 1   
    54    29    53 1   
    55    30    31 ar  
    56    31    32 ar  
    57    31    33 1   
    58    33    54 1   
    59    33    55 1   
@<TRIPOS>SUBSTRUCTURE
     1 WQ2         1 TEMP              0 ****  ****    0 ROOT
