@<TRIPOS>MOLECULE
WQ2
   56    59     1     0     0
SMALL
No Charge or Current Charge


@<TRIPOS>ATOM
      1 C1         -43.0440    46.8090   -12.1480 ca         1 WQ2      -0.047800
      2 C2         -43.7030    47.7710   -11.3500 ca         1 WQ2      -0.039300
      3 C3         -43.3890    47.8660    -9.9790 ca         1 WQ2      -0.164000
      4 C4         -42.4300    47.0230    -9.3890 ca         1 WQ2      -0.022000
      5 F2         -37.8760    52.0960    -6.7720 f          1 WQ2      -0.112000
      6 F          -39.7990    52.5050    -5.8460 f          1 WQ2      -0.112000
      7 F1         -39.7070    51.5590    -7.8010 f          1 WQ2      -0.112000
      8 C12        -39.1070    50.2250    -5.9020 ca         1 WQ2      -0.193300
      9 C11        -40.1910    49.3370    -6.0770 ca         1 WQ2      -0.043000
     10 C13        -38.0310    49.8380    -5.0760 ca         1 WQ2      -0.048000
     11 C14        -38.0350    48.5800    -4.4500 ca         1 WQ2      -0.115000
     12 C15        -39.1110    47.6990    -4.6380 ca         1 WQ2      -0.049000
     13 C10        -40.1990    48.0730    -5.4500 ca         1 WQ2      -0.137300
     14 C9         -41.3670    47.1080    -5.6580 c3         1 WQ2       0.136600
     15 O1         -42.6070    47.7760    -5.3180 oh         1 WQ2      -0.676000
     16 C8         -41.3580    46.5120    -7.1040 c          1 WQ2       0.611100
     17 O          -40.6780    45.5310    -7.3970 o          1 WQ2      -0.582100
     18 N          -42.1730    47.1920    -8.0010 ns         1 WQ2      -0.129000
     19 C5         -41.7720    46.0720   -10.1960 ca         1 WQ2      -0.137000
     20 C          -42.0810    45.9680   -11.5620 ca         1 WQ2      -0.083000
     21 C6         -44.7370    48.7230   -11.9450 c3         1 WQ2      -0.047800
     22 C7         -43.3380    46.6610   -13.5720 cc         1 WQ2      -0.049400
     23 C18        -44.5750    46.2360   -14.0240 cd         1 WQ2      -0.160100
     24 N1         -44.5030    46.1190   -15.4310 na         1 WQ2      -0.192400
     25 C21        -45.5550    45.6930   -16.3670 c3         1 WQ2       0.075900
     26 C17        -43.2100    46.4550   -15.8290 ca         1 WQ2       0.154500
     27 N3         -42.6550    46.4990   -17.0570 nb         1 WQ2      -0.236000
     28 C20        -41.3570    46.8860   -17.1150 ca         1 WQ2       0.192300
     29 C22        -40.7220    46.9490   -18.4920 c3         1 WQ2      -0.130400
     30 N2         -40.5740    47.2390   -16.0660 nb         1 WQ2      -0.305000
     31 C19        -41.1470    47.1850   -14.8550 ca         1 WQ2       0.430900
     32 C16        -42.4780    46.7850   -14.7140 ca         1 WQ2      -0.248800
     33 N4         -40.3690    47.5570   -13.8100 nv         1 WQ2      -1.070900
     34 H1         -43.8970    48.6070    -9.3660 ha         1 WQ2       0.112000
     35 H2         -41.0340    49.6330    -6.6990 ha         1 WQ2       0.136000
     36 H3         -37.1880    50.5070    -4.9110 ha         1 WQ2       0.135000
     37 H4         -37.1990    48.2880    -3.8180 ha         1 WQ2       0.127000
     38 H5         -39.0970    46.7270    -4.1490 ha         1 WQ2       0.127000
     39 H6         -41.2290    46.2470    -4.9890 h1         1 WQ2       0.071700
     40 H7         -42.5030    48.1260    -4.4040 ho         1 WQ2       0.468000
     41 H8         -42.6880    47.9520    -7.5750 hn         1 WQ2       0.175000
     42 H9         -41.0190    45.4040    -9.7880 ha         1 WQ2       0.150000
     43 H10        -41.5710    45.2260   -12.1730 ha         1 WQ2       0.127000
     44 H11        -45.6920    48.2110   -12.1110 hc         1 WQ2       0.045367
     45 H12        -44.9310    49.5760   -11.2830 hc         1 WQ2       0.045367
     46 H13        -44.4000    49.1290   -12.9050 hc         1 WQ2       0.045367
     47 H14        -45.4730    45.9990   -13.4610 h4         1 WQ2       0.217000
     48 H15        -46.4820    45.4890   -15.8170 h1         1 WQ2       0.052700
     49 H16        -45.7380    46.4880   -17.1010 h1         1 WQ2       0.052700
     50 H17        -45.2370    44.7830   -16.8890 h1         1 WQ2       0.052700
     51 H18        -41.1730    46.2190   -19.1750 hc         1 WQ2       0.056367
     52 H19        -40.8500    47.9440   -18.9340 hc         1 WQ2       0.056367
     53 H20        -39.6470    46.7360   -18.4490 hc         1 WQ2       0.056367
     54 H21        -39.5190    48.0780   -14.0040 hn         1 WQ2       0.495500
     55 H22        -40.8230    47.7190   -12.9160 hn         1 WQ2       0.495500
     56 C23        -39.1200    51.5990    -6.5830 c3         1 WQ2       0.344300
@<TRIPOS>BOND
     1     1     2 ar  
     2     1    20 ar  
     3     1    22 1   
     4     2     3 ar  
     5     2    21 1   
     6     3     4 ar  
     7     3    34 1   
     8     4    18 1   
     9     4    19 ar  
    10     5    56 1   
    11     6    56 1   
    12     7    56 1   
    13     8     9 ar  
    14     8    10 ar  
    15     8    56 1   
    16     9    13 ar  
    17     9    35 1   
    18    10    11 ar  
    19    10    36 1   
    20    11    12 ar  
    21    11    37 1   
    22    12    13 ar  
    23    12    38 1   
    24    13    14 1   
    25    14    15 1   
    26    14    16 1   
    27    14    39 1   
    28    15    40 1   
    29    16    17 2   
    30    16    18 1   
    31    18    41 1   
    32    19    20 ar  
    33    19    42 1   
    34    20    43 1   
    35    21    44 1   
    36    21    45 1   
    37    21    46 1   
    38    22    23 2   
    39    22    32 1   
    40    23    24 1   
    41    23    47 1   
    42    24    25 1   
    43    24    26 1   
    44    25    48 1   
    45    25    49 1   
    46    25    50 1   
    47    26    27 ar  
    48    26    32 ar  
    49    27    28 ar  
    50    28    29 1   
    51    28    30 ar  
    52    29    51 1   
    53    29    52 1   
    54    29    53 1   
    55    30    31 ar  
    56    31    32 ar  
    57    31    33 1   
    58    33    54 1   
    59    33    55 1   
@<TRIPOS>SUBSTRUCTURE
     1 WQ2         1 TEMP              0 ****  ****    0 ROOT
