@<TRIPOS>MOLECULE
WQ3
   37    39     1     0     0
SMALL
abcg2


@<TRIPOS>ATOM
      1 C02          0.6410     5.3480    21.2920 ca         1 WQ3      -0.182000
      2 C04          2.1210     5.4420    19.3640 ca         1 WQ3      -0.165000
      3 C05          3.1650     5.9410    20.1550 ca         1 WQ3       0.093000
      4 C06          2.9240     6.1440    21.5420 ca         1 WQ3      -0.278500
      5 C07          1.6650     5.8400    22.0760 ca         1 WQ3      -0.026000
      6 N09          5.1670     7.0280    22.1500 nc         1 WQ3      -0.775000
      7 C10          5.6790     7.4380    23.3570 cc         1 WQ3       0.582300
      8 O12          3.6650     6.8190    23.7350 os         1 WQ3      -0.121700
      9 C13          7.0630     7.9440    23.5220 c3         1 WQ3      -0.125400
     10 C15          4.8680     6.1070    18.3300 c          1 WQ3       0.642300
     11 C16          6.2600     6.5430    18.1430 ce         1 WQ3      -0.296400
     12 C18          6.8460     6.6690    16.9380 cf         1 WQ3      -0.007400
     13 C19          8.2470     7.2110    17.0730 c5         1 WQ3      -0.064200
     14 C20          8.5630     7.0510    18.5710 c5         1 WQ3      -0.082400
     15 C21          7.1880     6.9820    19.2630 c5         1 WQ3      -0.028200
     16 C22          6.2930     6.4020    15.5610 c          1 WQ3       0.714200
     17 N01          4.4120     6.2420    19.6290 ns         1 WQ3      -0.154000
     18 C03          0.8960     5.1590    19.9390 ca         1 WQ3       0.189000
     19 C08          3.9440     6.6630    22.4310 cd         1 WQ3       0.600500
     20 N11          4.8310     7.3380    24.3420 nd         1 WQ3      -0.401300
     21 CL14        -0.3790     4.5420    18.9170 cl         1 WQ3      -0.213000
     22 O17          4.1690     5.6670    17.4190 o          1 WQ3      -0.547100
     23 O23          6.5250     5.2650    15.0850 o          1 WQ3      -0.704000
     24 O24          5.7270     7.3670    14.9920 o          1 WQ3      -0.704000
     25 H26         -0.3250     5.1180    21.7150 ha         1 WQ3       0.126000
     26 H27          2.2850     5.2850    18.3140 ha         1 WQ3       0.187000
     27 H28          1.4920     5.9970    23.1310 ha         1 WQ3       0.122000
     28 H30          7.2170     8.8130    22.8800 hc         1 WQ3       0.063367
     29 H31          7.2490     8.2220    24.5570 hc         1 WQ3       0.063367
     30 H29          7.7760     7.1760    23.2190 hc         1 WQ3       0.063367
     31 H32          8.9540     6.6910    16.4230 hc         1 WQ3       0.060200
     32 H33          8.2510     8.2630    16.7620 hc         1 WQ3       0.060200
     33 H34          9.0930     6.1090    18.7280 hc         1 WQ3       0.028700
     34 H35          9.1900     7.8530    18.9600 hc         1 WQ3       0.028700
     35 H36          6.8860     7.9600    19.6560 hc         1 WQ3       0.030200
     36 H37          7.1940     6.2930    20.1090 hc         1 WQ3       0.030200
     37 H25          5.0700     6.6170    20.3080 hn         1 WQ3       0.192000
@<TRIPOS>BOND
     1     1     5 ar  
     2     1    18 ar  
     3     1    25 1   
     4     2     3 ar  
     5     2    18 ar  
     6     2    26 1   
     7     3     4 ar  
     8     3    17 1   
     9     4     5 ar  
    10     4    19 1   
    11     5    27 1   
    12     6     7 1   
    13     6    19 2   
    14     7     9 1   
    15     7    20 2   
    16     8    19 1   
    17     8    20 1   
    18     9    28 1   
    19     9    29 1   
    20     9    30 1   
    21    10    11 1   
    22    10    17 1   
    23    10    22 2   
    24    11    12 2   
    25    11    15 1   
    26    12    13 1   
    27    12    16 1   
    28    13    14 1   
    29    13    31 1   
    30    13    32 1   
    31    14    15 1   
    32    14    33 1   
    33    14    34 1   
    34    15    35 1   
    35    15    36 1   
    36    16    23 1   
    37    16    24 1   
    38    17    37 1   
    39    18    21 1   
@<TRIPOS>SUBSTRUCTURE
     1 WQ3         1 TEMP              0 ****  ****    0 ROOT
