@<TRIPOS>MOLECULE
WQ3
   37    39     1     0     0
SMALL
No Charge or Current Charge


@<TRIPOS>ATOM
      1 C02          0.6520     5.2630    21.4450 ca         1 WQ3      -0.182000
      2 C04          2.0880     5.2110    19.4950 ca         1 WQ3      -0.165000
      3 C05          3.1070     5.8950    20.1940 ca         1 WQ3       0.093000
      4 C06          2.8900     6.2560    21.5560 ca         1 WQ3      -0.278500
      5 C07          1.6540     5.9280    22.1640 ca         1 WQ3      -0.026000
      6 N09          5.1920     7.0960    22.1020 nc         1 WQ3      -0.775000
      7 C10          5.6300     7.7590    23.2040 cc         1 WQ3       0.582300
      8 O12          3.5630     7.4550    23.5960 os         1 WQ3      -0.121700
      9 C13          7.0690     8.1590    23.3000 c3         1 WQ3      -0.125400
     10 C15          4.7360     6.2780    18.2370 c          1 WQ3       0.642300
     11 C16          6.2040     6.5980    18.0150 ce         1 WQ3      -0.296400
     12 C18          6.9270     6.9120    16.8850 cf         1 WQ3      -0.007400
     13 C19          8.4030     7.0650    17.3110 c5         1 WQ3      -0.064200
     14 C20          8.4840     6.2660    18.6310 c5         1 WQ3      -0.082400
     15 C21          7.1010     6.5560    19.2640 c5         1 WQ3      -0.028200
     16 C22          6.5200     7.0930    15.4290 c          1 WQ3       0.714200
     17 N01          4.3440     6.2110    19.5670 ns         1 WQ3      -0.154000
     18 C03          0.8720     4.9030    20.1140 ca         1 WQ3       0.189000
     19 C08          3.9190     6.9330    22.3860 cd         1 WQ3       0.600500
     20 N11          4.7380     8.0170    24.1440 nd         1 WQ3      -0.401300
     21 Cl14        -0.3790     4.0500    19.2190 cl         1 WQ3      -0.213000
     22 O17          3.9500     6.1050    17.3180 o          1 WQ3      -0.547100
     23 O23          7.4050     7.3330    14.6170 o          1 WQ3      -0.704000
     24 O24          5.3450     7.0400    15.1010 o          1 WQ3      -0.704000
     25 H26         -0.2920     5.0170    21.9250 ha         1 WQ3       0.126000
     26 H27          2.2220     4.8910    18.4680 ha         1 WQ3       0.187000
     27 H28          1.4590     6.1810    23.2050 ha         1 WQ3       0.122000
     28 H30          7.3230     8.8700    22.5070 hc         1 WQ3       0.063367
     29 H31          7.2850     8.6330    24.2650 hc         1 WQ3       0.063367
     30 H29          7.7200     7.2840    23.1970 hc         1 WQ3       0.063367
     31 H32          9.1020     6.6730    16.5640 hc         1 WQ3       0.060200
     32 H33          8.6510     8.1220    17.4650 hc         1 WQ3       0.060200
     33 H34          8.6040     5.1940    18.4310 hc         1 WQ3       0.028700
     34 H35          9.3190     6.5780    19.2690 hc         1 WQ3       0.028700
     35 H36          7.0890     7.5170    19.7940 hc         1 WQ3       0.030200
     36 H37          6.8390     5.7680    19.9790 hc         1 WQ3       0.030200
     37 H25          5.0790     6.4430    20.2230 hn         1 WQ3       0.192000
@<TRIPOS>BOND
     1     1     5 ar  
     2     1    18 ar  
     3     1    25 1   
     4     2     3 ar  
     5     2    18 ar  
     6     2    26 1   
     7     3     4 ar  
     8     3    17 1   
     9     4     5 ar  
    10     4    19 1   
    11     5    27 1   
    12     6     7 1   
    13     6    19 2   
    14     7     9 1   
    15     7    20 2   
    16     8    19 1   
    17     8    20 1   
    18     9    28 1   
    19     9    29 1   
    20     9    30 1   
    21    10    11 1   
    22    10    17 1   
    23    10    22 2   
    24    11    12 2   
    25    11    15 1   
    26    12    13 1   
    27    12    16 1   
    28    13    14 1   
    29    13    31 1   
    30    13    32 1   
    31    14    15 1   
    32    14    33 1   
    33    14    34 1   
    34    15    35 1   
    35    15    36 1   
    36    16    23 1   
    37    16    24 1   
    38    17    37 1   
    39    18    21 1   
@<TRIPOS>SUBSTRUCTURE
     1 WQ3         1 TEMP              0 ****  ****    0 ROOT
