@<TRIPOS>MOLECULE
WQ4
   14    14     1     0     0
SMALL
No Charge or Current Charge


@<TRIPOS>ATOM
      1 N1          -3.1640    14.6140    -2.0350 n1         1 WQ4      -0.464000
      2 C4          -4.7810    15.0890     1.1460 cc         1 WQ4       0.431900
      3 C3          -3.9740    14.7020    -1.1950 ch         1 WQ4       0.267000
      4 C2          -4.9760    14.7840    -0.1840 cd         1 WQ4       0.196000
      5 N           -6.3310    14.5680    -0.3890 nd         1 WQ4      -0.604000
      6 N2          -3.6760    15.3880     1.8970 nv         1 WQ4      -1.033900
      7 O           -5.9610    15.0740     1.7950 os         1 WQ4      -0.293000
      8 C1          -6.8530    14.7540     0.8140 cc         1 WQ4       0.429300
      9 C           -8.3020    14.6440     1.1740 c3         1 WQ4      -0.114400
     10 H1          -3.7700    15.3830     2.9110 hn         1 WQ4       0.492500
     11 H2          -2.7490    15.1950     1.5220 hn         1 WQ4       0.492500
     12 H3          -8.9100    14.4040     0.2940 hc         1 WQ4       0.066033
     13 H4          -8.4540    13.8560     1.9200 hc         1 WQ4       0.066033
     14 H5          -8.6670    15.5880     1.5940 hc         1 WQ4       0.066033
@<TRIPOS>BOND
     1     1     3 3   
     2     2     4 2   
     3     2     6 1   
     4     2     7 1   
     5     3     4 1   
     6     4     5 1   
     7     5     8 2   
     8     6    10 1   
     9     6    11 1   
    10     7     8 1   
    11     8     9 1   
    12     9    12 1   
    13     9    13 1   
    14     9    14 1   
@<TRIPOS>SUBSTRUCTURE
     1 WQ4         1 TEMP              0 ****  ****    0 ROOT
