@<TRIPOS>MOLECULE
WQ4
   14    14     1     0     0
SMALL
abcg2


@<TRIPOS>ATOM
      1 N1          -3.1870    14.6210    -1.9910 n1         1 WQ4      -0.464000
      2 C4          -4.7670    15.0830     1.1620 cc         1 WQ4       0.431900
      3 C3          -4.0000    14.6940    -1.1740 ch         1 WQ4       0.267000
      4 C2          -4.9700    14.7870    -0.1630 cd         1 WQ4       0.196000
      5 N           -6.3280    14.5800    -0.3660 nd         1 WQ4      -0.604000
      6 N2          -3.6970    15.4220     1.8940 nv         1 WQ4      -1.033900
      7 O           -5.9620    15.0570     1.7540 os         1 WQ4      -0.293000
      8 C1          -6.8670    14.7450     0.7770 cc         1 WQ4       0.429300
      9 C           -8.2860    14.6490     1.1710 c3         1 WQ4      -0.114400
     10 H1          -3.7490    15.2880     2.8900 hn         1 WQ4       0.492500
     11 H2          -2.7880    15.2440     1.5050 hn         1 WQ4       0.492500
     12 H3          -8.8790    14.3740     0.3030 hc         1 WQ4       0.066033
     13 H4          -8.4340    13.8970     1.9470 hc         1 WQ4       0.066033
     14 H5          -8.6540    15.6010     1.5560 hc         1 WQ4       0.066033
@<TRIPOS>BOND
     1     1     3 3   
     2     2     4 2   
     3     2     6 1   
     4     2     7 1   
     5     3     4 1   
     6     4     5 1   
     7     5     8 2   
     8     6    10 1   
     9     6    11 1   
    10     7     8 1   
    11     8     9 1   
    12     9    12 1   
    13     9    13 1   
    14     9    14 1   
@<TRIPOS>SUBSTRUCTURE
     1 WQ4         1 TEMP              0 ****  ****    0 ROOT
