@<TRIPOS>MOLECULE
WQ6
   56    59     1     0     0
SMALL
abcg2


@<TRIPOS>ATOM
      1 C4          15.9750    -5.2410     8.1250 c5         1 WQ6      -0.093400
      2 C5          16.9140    -5.8700     9.1480 c5         1 WQ6       0.098000
      3 C11         14.8220    -8.9710    13.9860 ca         1 WQ6      -0.058000
      4 C7          16.4250    -7.4370    10.9450 c          1 WQ6       0.607700
      5 C9          15.4310    -8.1760    11.7920 ca         1 WQ6      -0.087600
      6 C10         15.6760    -8.2600    13.1820 ca         1 WQ6      -0.102000
      7 C12         13.7120    -9.6320    13.4240 ca         1 WQ6      -0.192000
      8 C13         12.7830   -10.3910    14.1760 ca         1 WQ6       0.173900
      9 C3          14.8110    -4.7640     8.9900 c5         1 WQ6      -0.092400
     10 C1          14.1530    -5.2930    11.3860 c3         1 WQ6      -0.107100
     11 C15         11.5840   -10.8390    12.2840 ca         1 WQ6       0.378900
     12 C17         13.4680    -9.5670    12.0280 ca         1 WQ6       0.074000
     13 C18         14.3580    -8.8240    11.2220 ca         1 WQ6      -0.092000
     14 C2          14.6360    -5.8570    10.0560 c5         1 WQ6       0.120700
     15 C20          9.9850   -11.2590    10.4380 c6         1 WQ6       0.245500
     16 C21          8.9670   -12.3480    10.1110 c6         1 WQ6      -0.094900
     17 C22          8.3750   -12.1500     8.7210 c6         1 WQ6       0.206800
     18 C24          8.7790    -9.7230     8.8470 c6         1 WQ6       0.206800
     19 C25          9.3580    -9.8740    10.2470 c6         1 WQ6      -0.094900
     20 C29          7.3920   -10.6550     5.8980 c3         1 WQ6      -0.388100
     21 N14         11.7490   -10.9830    13.6440 nb         1 WQ6      -0.222000
     22 N16         12.3930   -10.1810    11.4700 nb         1 WQ6      -0.257000
     23 N19         10.4860   -11.4550    11.7870 nu         1 WQ6      -0.916100
     24 N23          7.7970   -10.7990     8.6170 n3         1 WQ6      -0.753500
     25 N6          15.9900    -6.4750    10.1180 n          1 WQ6      -0.415800
     26 O27          5.6840   -11.6420     7.6120 o          1 WQ6      -0.538500
     27 O28          6.1410    -9.1990     7.6740 o          1 WQ6      -0.538500
     28 O8          17.6200    -7.7580    11.0160 o          1 WQ6      -0.607100
     29 S26          6.6270   -10.5500     7.4980 s6         1 WQ6       1.232100
     30 H1          15.6400    -6.0000     7.4140 hc         1 WQ6       0.055700
     31 H2          16.4520    -4.4360     7.5670 hc         1 WQ6       0.055700
     32 H3          17.5690    -6.6350     8.7370 h1         1 WQ6       0.059700
     33 H4          17.5370    -5.1150     9.6370 h1         1 WQ6       0.059700
     34 H5          14.9890    -9.0340    15.0550 ha         1 WQ6       0.119000
     35 H6          16.5350    -7.7510    13.5980 ha         1 WQ6       0.133000
     36 H7          12.9210   -10.4960    15.2490 h4         1 WQ6       0.025100
     37 H8          15.0740    -3.8220     9.4790 hc         1 WQ6       0.054200
     38 H9          13.8880    -4.6060     8.4320 hc         1 WQ6       0.054200
     39 H10         13.9540    -6.0700    12.1210 hc         1 WQ6       0.047033
     40 H11         14.8940    -4.6040    11.7950 hc         1 WQ6       0.047033
     41 H12         13.2260    -4.7410    11.2200 hc         1 WQ6       0.047033
     42 H13         14.1740    -8.7770    10.1580 ha         1 WQ6       0.134000
     43 H14         13.9260    -6.6030     9.6960 h1         1 WQ6       0.054700
     44 H15         10.8330   -11.3510     9.7550 h1         1 WQ6       0.075700
     45 H16          8.1620   -12.3260    10.8510 hc         1 WQ6       0.063700
     46 H17          9.4400   -13.3310    10.1590 hc         1 WQ6       0.063700
     47 H18          7.5920   -12.8800     8.5370 h1         1 WQ6       0.056700
     48 H19          9.1560   -12.2810     7.9620 h1         1 WQ6       0.056700
     49 H20          9.5790    -9.7820     8.0990 h1         1 WQ6       0.056700
     50 H21          8.2780    -8.7660     8.7410 h1         1 WQ6       0.056700
     51 H22         10.1090    -9.1010    10.4100 hc         1 WQ6       0.063700
     52 H23          8.5630    -9.7380    10.9850 hc         1 WQ6       0.063700
     53 H24          8.1620    -9.8890     5.8310 h1         1 WQ6       0.100033
     54 H25          7.8220   -11.6490     5.7840 h1         1 WQ6       0.100033
     55 H26          6.6170   -10.4860     5.1530 h1         1 WQ6       0.100033
     56 H27          9.8480   -11.8180    12.4790 hn         1 WQ6       0.503000
@<TRIPOS>BOND
     1     1     2 1   
     2     1     9 1   
     3     1    30 1   
     4     1    31 1   
     5     2    25 1   
     6     2    32 1   
     7     2    33 1   
     8     3     6 ar  
     9     3     7 ar  
    10     3    34 1   
    11     4     5 1   
    12     4    25 1   
    13     4    28 2   
    14     5     6 ar  
    15     5    13 ar  
    16     6    35 1   
    17     7     8 ar  
    18     7    12 ar  
    19     8    21 ar  
    20     8    36 1   
    21     9    14 1   
    22     9    37 1   
    23     9    38 1   
    24    10    14 1   
    25    10    39 1   
    26    10    40 1   
    27    10    41 1   
    28    11    21 ar  
    29    11    22 ar  
    30    11    23 1   
    31    12    13 ar  
    32    12    22 ar  
    33    13    42 1   
    34    14    25 1   
    35    14    43 1   
    36    15    16 1   
    37    15    19 1   
    38    15    23 1   
    39    15    44 1   
    40    16    17 1   
    41    16    45 1   
    42    16    46 1   
    43    17    24 1   
    44    17    47 1   
    45    17    48 1   
    46    18    19 1   
    47    18    24 1   
    48    18    49 1   
    49    18    50 1   
    50    19    51 1   
    51    19    52 1   
    52    20    29 1   
    53    20    53 1   
    54    20    54 1   
    55    20    55 1   
    56    23    56 1   
    57    24    29 1   
    58    26    29 2   
    59    27    29 2   
@<TRIPOS>SUBSTRUCTURE
     1 WQ6         1 TEMP              0 ****  ****    0 ROOT
