@<TRIPOS>MOLECULE
WQ6
   56    59     1     0     0
SMALL
No Charge or Current Charge


@<TRIPOS>ATOM
      1 C4          15.7690    -5.4660     7.9350 c5         1 WQ6      -0.093400
      2 C5          16.8050    -5.9560     8.9710 c5         1 WQ6       0.098000
      3 C11         14.9220    -9.1670    14.0440 ca         1 WQ6      -0.058000
      4 C7          16.4290    -7.3040    11.0610 c          1 WQ6       0.607700
      5 C9          15.4860    -8.1500    11.8910 ca         1 WQ6      -0.087600
      6 C10         15.7790    -8.3850    13.2530 ca         1 WQ6      -0.102000
      7 C12         13.7700    -9.7350    13.4730 ca         1 WQ6      -0.192000
      8 C13         12.8880   -10.5230    14.2360 ca         1 WQ6       0.173900
      9 C3          14.7260    -4.8140     8.8700 c5         1 WQ6      -0.092400
     10 C1          14.2050    -5.2080    11.3620 c3         1 WQ6      -0.107100
     11 C15         11.5850   -10.8350    12.3840 ca         1 WQ6       0.378900
     12 C17         13.4710    -9.5380    12.1080 ca         1 WQ6       0.074000
     13 C18         14.3380    -8.7530    11.3270 ca         1 WQ6      -0.092000
     14 C2          14.5810    -5.8650    10.0130 c5         1 WQ6       0.120700
     15 C20          9.9210   -11.2060    10.4820 c6         1 WQ6       0.245500
     16 C21          8.9440   -12.3420    10.1190 c6         1 WQ6      -0.094900
     17 C22          8.3250   -12.1000     8.7250 c6         1 WQ6       0.206800
     18 C24          8.5630    -9.6610     8.9950 c6         1 WQ6       0.206800
     19 C25          9.1900    -9.8480    10.3930 c6         1 WQ6      -0.094900
     20 C29          7.8300   -10.4930     5.8990 c3         1 WQ6      -0.388100
     21 N14         11.7880   -11.0770    13.6900 nb         1 WQ6      -0.222000
     22 N16         12.3690   -10.1000    11.5690 nb         1 WQ6      -0.257000
     23 N19         10.4450   -11.4200    11.8440 nu         1 WQ6      -0.916100
     24 N23          7.6430   -10.7810     8.6630 n3         1 WQ6      -0.753500
     25 N6          15.9110    -6.5440     9.9880 n          1 WQ6      -0.415800
     26 O27          5.8130   -11.7110     7.1290 o          1 WQ6      -0.538500
     27 O28          6.0560    -9.2090     7.4060 o          1 WQ6      -0.538500
     28 O8          17.6390    -7.3480    11.2570 o          1 WQ6      -0.607100
     29 S26          6.6730   -10.5310     7.2600 s6         1 WQ6       1.232100
     30 H1          15.3390    -6.3020     7.3710 hc         1 WQ6       0.055700
     31 H2          16.1960    -4.7600     7.2140 hc         1 WQ6       0.055700
     32 H3          17.4950    -6.6960     8.5440 h1         1 WQ6       0.059700
     33 H4          17.3920    -5.1270     9.3900 h1         1 WQ6       0.059700
     34 H5          15.1540    -9.3290    15.0950 ha         1 WQ6       0.119000
     35 H6          16.6670    -7.9470    13.7020 ha         1 WQ6       0.133000
     36 H7          13.0610   -10.7160    15.2930 h4         1 WQ6       0.025100
     37 H8          15.0980    -3.8550     9.2520 hc         1 WQ6       0.054200
     38 H9          13.7740    -4.6130     8.3670 hc         1 WQ6       0.054200
     39 H10         14.0080    -5.9510    12.1410 hc         1 WQ6       0.047033
     40 H11         15.0040    -4.5470    11.7180 hc         1 WQ6       0.047033
     41 H12         13.2950    -4.6050    11.2570 hc         1 WQ6       0.047033
     42 H13         14.1250    -8.6390    10.2680 ha         1 WQ6       0.134000
     43 H14         13.7890    -6.5730     9.7410 h1         1 WQ6       0.054700
     44 H15         10.7430   -11.2210     9.7480 h1         1 WQ6       0.075700
     45 H16          8.1400   -12.4080    10.8640 hc         1 WQ6       0.063700
     46 H17          9.4670   -13.3080    10.1270 hc         1 WQ6       0.063700
     47 H18          7.6160   -12.9170     8.5240 h1         1 WQ6       0.056700
     48 H19          9.1160   -12.1650     7.9640 h1         1 WQ6       0.056700
     49 H20          9.3670    -9.5850     8.2480 h1         1 WQ6       0.056700
     50 H21          8.0270    -8.7010     8.9900 h1         1 WQ6       0.056700
     51 H22          9.8870    -9.0250    10.5940 hc         1 WQ6       0.063700
     52 H23          8.4020    -9.7920    11.1550 hc         1 WQ6       0.063700
     53 H24          8.5240    -9.6640     6.0700 h1         1 WQ6       0.100033
     54 H25          8.3510   -11.4550     5.8710 h1         1 WQ6       0.100033
     55 H26          7.2490   -10.3350     4.9850 h1         1 WQ6       0.100033
     56 H27          9.8800   -11.9550    12.5040 hn         1 WQ6       0.503000
@<TRIPOS>BOND
     1     1     2 1   
     2     1     9 1   
     3     1    30 1   
     4     1    31 1   
     5     2    25 1   
     6     2    32 1   
     7     2    33 1   
     8     3     6 ar  
     9     3     7 ar  
    10     3    34 1   
    11     4     5 1   
    12     4    25 1   
    13     4    28 2   
    14     5     6 ar  
    15     5    13 ar  
    16     6    35 1   
    17     7     8 ar  
    18     7    12 ar  
    19     8    21 ar  
    20     8    36 1   
    21     9    14 1   
    22     9    37 1   
    23     9    38 1   
    24    10    14 1   
    25    10    39 1   
    26    10    40 1   
    27    10    41 1   
    28    11    21 ar  
    29    11    22 ar  
    30    11    23 1   
    31    12    13 ar  
    32    12    22 ar  
    33    13    42 1   
    34    14    25 1   
    35    14    43 1   
    36    15    16 1   
    37    15    19 1   
    38    15    23 1   
    39    15    44 1   
    40    16    17 1   
    41    16    45 1   
    42    16    46 1   
    43    17    24 1   
    44    17    47 1   
    45    17    48 1   
    46    18    19 1   
    47    18    24 1   
    48    18    49 1   
    49    18    50 1   
    50    19    51 1   
    51    19    52 1   
    52    20    29 1   
    53    20    53 1   
    54    20    54 1   
    55    20    55 1   
    56    23    56 1   
    57    24    29 1   
    58    26    29 2   
    59    27    29 2   
@<TRIPOS>SUBSTRUCTURE
     1 WQ6         1 TEMP              0 ****  ****    0 ROOT
