@<TRIPOS>MOLECULE
WQ7
   20    20     1     0     0
SMALL
No Charge or Current Charge


@<TRIPOS>ATOM
      1 N1          -7.5320    14.2970     4.0660 n8         1 WQ7      -1.003200
      2 C4          -3.2520    15.0300     0.0590 cc         1 WQ7      -0.303000
      3 C5          -3.7870    15.4940    -1.1830 cc         1 WQ7      -0.085000
      4 C6          -5.1460    15.4120    -1.3820 cd         1 WQ7      -0.322200
      5 C7          -6.0750    14.8670    -0.3730 c          1 WQ7       0.549200
      6 C1          -6.7050    14.8850     2.9850 c3         1 WQ7       0.133800
      7 C2          -6.3230    13.8520     1.8970 c3         1 WQ7       0.082000
      8 N2          -5.4680    14.4260     0.8290 n          1 WQ7      -0.271000
      9 C3          -4.0880    14.5130     1.0260 cd         1 WQ7      -0.031400
     10 H1          -7.7790    15.0350     4.7390 hn         1 WQ7       0.400500
     11 H2          -8.4430    14.0160     3.6810 hn         1 WQ7       0.400500
     12 H4          -2.1790    15.0910     0.2290 ha         1 WQ7       0.200000
     13 H5          -3.1220    15.9020    -1.9450 ha         1 WQ7       0.185000
     14 H6          -5.6150    15.7470    -2.3000 ha         1 WQ7       0.207000
     15 H7          -5.7880    15.2960     3.4300 h1         1 WQ7       0.040200
     16 H8          -7.2610    15.7120     2.5220 h1         1 WQ7       0.040200
     17 H9          -7.2350    13.4270     1.4610 h1         1 WQ7       0.072700
     18 H10         -5.7820    13.0220     2.3710 h1         1 WQ7       0.072700
     19 H11         -3.7490    14.1430     1.9920 h4         1 WQ7       0.199000
     20 O1          -7.2810    14.8110    -0.5750 o          1 WQ7      -0.567000
@<TRIPOS>BOND
     1     1     6 1   
     2     1    10 1   
     3     1    11 1   
     4     2     3 1   
     5     2     9 2   
     6     2    12 1   
     7     3     4 2   
     8     3    13 1   
     9     4     5 1   
    10     4    14 1   
    11     5     8 1   
    12     5    20 2   
    13     6     7 1   
    14     6    15 1   
    15     6    16 1   
    16     7     8 1   
    17     7    17 1   
    18     7    18 1   
    19     8     9 1   
    20     9    19 1   
@<TRIPOS>SUBSTRUCTURE
     1 WQ7         1 TEMP              0 ****  ****    0 ROOT
