@<TRIPOS>MOLECULE
WQ7
   20    20     1     0     0
SMALL
abcg2


@<TRIPOS>ATOM
      1 N1          -7.5350    14.3110     3.9270 n8         1 WQ7      -1.003200
      2 C4          -3.2710    14.9870     0.0770 cc         1 WQ7      -0.303000
      3 C5          -3.8520    15.4850    -1.1110 cc         1 WQ7      -0.085000
      4 C6          -5.1980    15.4360    -1.2910 cd         1 WQ7      -0.322200
      5 C7          -6.0790    14.8910    -0.2930 c          1 WQ7       0.549200
      6 C1          -6.7340    14.9270     2.8840 c3         1 WQ7       0.133800
      7 C2          -6.2600    13.8470     1.9190 c3         1 WQ7       0.082000
      8 N2          -5.4420    14.3980     0.8420 n          1 WQ7      -0.271000
      9 C3          -4.0980    14.4600     1.0140 cd         1 WQ7      -0.031400
     10 H1          -7.6930    14.9770     4.6720 hn         1 WQ7       0.400500
     11 H2          -8.4510    14.0850     3.5610 hn         1 WQ7       0.400500
     12 H4          -2.2050    15.0120     0.2470 ha         1 WQ7       0.200000
     13 H5          -3.2210    15.9080    -1.8830 ha         1 WQ7       0.185000
     14 H6          -5.6560    15.8170    -2.1930 ha         1 WQ7       0.207000
     15 H7          -5.8600    15.3930     3.3450 h1         1 WQ7       0.040200
     16 H8          -7.2550    15.7140     2.3250 h1         1 WQ7       0.040200
     17 H9          -7.1090    13.3250     1.4800 h1         1 WQ7       0.072700
     18 H10         -5.6640    13.1090     2.4560 h1         1 WQ7       0.072700
     19 H11         -3.7240    14.0540     1.9440 h4         1 WQ7       0.199000
     20 O1          -7.3030    14.8420    -0.3940 o          1 WQ7      -0.567000
@<TRIPOS>BOND
     1     1     6 1   
     2     1    10 1   
     3     1    11 1   
     4     2     3 1   
     5     2     9 2   
     6     2    12 1   
     7     3     4 2   
     8     3    13 1   
     9     4     5 1   
    10     4    14 1   
    11     5     8 1   
    12     5    20 2   
    13     6     7 1   
    14     6    15 1   
    15     6    16 1   
    16     7     8 1   
    17     7    17 1   
    18     7    18 1   
    19     8     9 1   
    20     9    19 1   
@<TRIPOS>SUBSTRUCTURE
     1 WQ7         1 TEMP              0 ****  ****    0 ROOT
