@<TRIPOS>MOLECULE
WQ8
   33    36     1     0     0
SMALL
abcg2


@<TRIPOS>ATOM
      1 C01          2.8580     6.2290    19.7430 c5         1 WQ8      -0.106000
      2 C02          1.4090     5.9930    20.2650 c5         1 WQ8      -0.068700
      3 C04          3.8610     6.4950    20.8110 cc         1 WQ8       0.490200
      4 C05          1.3200     4.4600    20.3510 c5         1 WQ8      -0.097400
      5 C06          0.4610     6.2800    19.0850 c5         1 WQ8      -0.072400
      6 C07          1.7600     4.2350    18.8950 c5         1 WQ8      -0.048700
      7 N09          4.5030     7.6150    20.9320 nd         1 WQ8      -0.552100
      8 C11          0.7250     5.0800    18.1250 c5         1 WQ8      -0.071400
      9 O12          3.7910     6.3740    17.0420 o          1 WQ8      -0.728500
     10 C15          5.3640     6.4180    22.7700 ca         1 WQ8      -0.187000
     11 C16          6.1830     8.6730    22.4080 ca         1 WQ8      -0.063000
     12 C17          6.1710     6.2670    23.8940 ca         1 WQ8      -0.074000
     13 C19          6.9880     8.5230    23.5270 ca         1 WQ8      -0.125000
     14 C20          6.9820     7.3310    24.2640 ca         1 WQ8      -0.125000
     15 C03          3.1300     4.9560    18.8830 c5         1 WQ8      -0.173700
     16 C08          3.6920     5.1960    17.4670 c          1 WQ8       0.716000
     17 O13          4.0040     4.1530    16.8340 o          1 WQ8      -0.728500
     18 C14          5.3590     7.6140    22.0210 ca         1 WQ8       0.109400
     19 S18          4.2520     5.2920    22.0490 ss         1 WQ8      -0.033200
     20 H21          2.8860     7.1050    19.0980 hc         1 WQ8       0.119700
     21 H22          1.1750     6.5510    21.1710 hc         1 WQ8       0.045700
     22 H24          1.9960     4.0100    21.0790 hc         1 WQ8       0.031700
     23 H25          0.3050     4.1120    20.5540 hc         1 WQ8       0.031700
     24 H26         -0.5750     6.2890    19.4270 hc         1 WQ8       0.032700
     25 H27          0.6680     7.2450    18.6210 hc         1 WQ8       0.032700
     26 H28          1.8250     3.2020    18.5630 hc         1 WQ8       0.069700
     27 H30         -0.1870     4.5050    17.9580 hc         1 WQ8       0.045700
     28 H31          1.0950     5.3990    17.1500 hc         1 WQ8       0.045700
     29 H33          6.1820     9.5920    21.8350 ha         1 WQ8       0.126000
     30 H34          6.1680     5.3470    24.4630 ha         1 WQ8       0.112000
     31 H36          7.6300     9.3380    23.8380 ha         1 WQ8       0.103000
     32 H37          7.6190     7.2360    25.1340 ha         1 WQ8       0.100000
     33 H23          3.8480     4.3100    19.3940 hc         1 WQ8       0.041700
@<TRIPOS>BOND
     1     1     2 1   
     2     1     3 1   
     3     1    15 1   
     4     1    20 1   
     5     2     4 1   
     6     2     5 1   
     7     2    21 1   
     8     3     7 2   
     9     3    19 1   
    10     4     6 1   
    11     4    22 1   
    12     4    23 1   
    13     5     8 1   
    14     5    24 1   
    15     5    25 1   
    16     6     8 1   
    17     6    15 1   
    18     6    26 1   
    19     7    18 1   
    20     8    27 1   
    21     8    28 1   
    22     9    16 1   
    23    10    12 ar  
    24    10    18 ar  
    25    10    19 1   
    26    11    13 ar  
    27    11    18 ar  
    28    11    29 1   
    29    12    14 ar  
    30    12    30 1   
    31    13    14 ar  
    32    13    31 1   
    33    14    32 1   
    34    15    16 1   
    35    15    33 1   
    36    16    17 1   
@<TRIPOS>SUBSTRUCTURE
     1 WQ8         1 TEMP              0 ****  ****    0 ROOT
