@<TRIPOS>MOLECULE
WQ8
   33    36     1     0     0
SMALL
No Charge or Current Charge


@<TRIPOS>ATOM
      1 C01          2.7790     6.2730    19.7840 c5         1 WQ8      -0.106000
      2 C02          1.3490     5.8810    20.3220 c5         1 WQ8      -0.068700
      3 C04          3.8000     6.5380    20.8780 cc         1 WQ8       0.490200
      4 C05          1.3260     4.3290    20.2660 c5         1 WQ8      -0.097400
      5 C06          0.3520     6.2120    19.1650 c5         1 WQ8      -0.072400
      6 C07          1.7850     4.2460    18.7940 c5         1 WQ8      -0.048700
      7 N09          4.6450     7.5810    20.8060 nd         1 WQ8      -0.552100
      8 C11          0.6790     5.1160    18.0990 c5         1 WQ8      -0.071400
      9 O12          3.3440     6.2440    16.8220 o          1 WQ8      -0.728500
     10 C15          5.2170     6.5380    22.8350 ca         1 WQ8      -0.187000
     11 C16          6.4520     8.5070    22.2020 ca         1 WQ8      -0.063000
     12 C17          5.9580     6.4030    24.0190 ca         1 WQ8      -0.074000
     13 C19          7.2140     8.3980    23.3830 ca         1 WQ8      -0.125000
     14 C20          6.9670     7.3470    24.2910 ca         1 WQ8      -0.125000
     15 C03          3.1520     5.0190    18.9100 c5         1 WQ8      -0.173700
     16 C08          3.8220     5.3830    17.5460 c          1 WQ8       0.716000
     17 O13          4.8790     4.8370    17.2670 o          1 WQ8      -0.728500
     18 C14          5.4470     7.5600    21.9390 ca         1 WQ8       0.109400
     19 S18          3.9240     5.4780    22.3100 ss         1 WQ8      -0.033200
     20 H21          2.7160     7.1790    19.1700 hc         1 WQ8       0.119700
     21 H22          1.0760     6.3270    21.2860 hc         1 WQ8       0.045700
     22 H24          2.0150     3.8440    20.9660 hc         1 WQ8       0.031700
     23 H25          0.3290     3.9040    20.4360 hc         1 WQ8       0.031700
     24 H26         -0.6860     6.1250    19.5060 hc         1 WQ8       0.032700
     25 H27          0.4670     7.2300    18.7740 hc         1 WQ8       0.032700
     26 H28          1.8760     3.2280    18.3950 hc         1 WQ8       0.069700
     27 H30         -0.2120     4.5110    17.8960 hc         1 WQ8       0.045700
     28 H31          0.9790     5.5350    17.1350 hc         1 WQ8       0.045700
     29 H33          6.6380     9.3150    21.4990 ha         1 WQ8       0.126000
     30 H34          5.7590     5.5890    24.7120 ha         1 WQ8       0.112000
     31 H36          7.9930     9.1260    23.5940 ha         1 WQ8       0.103000
     32 H37          7.5560     7.2650    25.2020 ha         1 WQ8       0.100000
     33 H23          3.8500     4.3570    19.4390 hc         1 WQ8       0.041700
@<TRIPOS>BOND
     1     1     2 1   
     2     1     3 1   
     3     1    15 1   
     4     1    20 1   
     5     2     4 1   
     6     2     5 1   
     7     2    21 1   
     8     3     7 2   
     9     3    19 1   
    10     4     6 1   
    11     4    22 1   
    12     4    23 1   
    13     5     8 1   
    14     5    24 1   
    15     5    25 1   
    16     6     8 1   
    17     6    15 1   
    18     6    26 1   
    19     7    18 1   
    20     8    27 1   
    21     8    28 1   
    22     9    16 1   
    23    10    12 ar  
    24    10    18 ar  
    25    10    19 1   
    26    11    13 ar  
    27    11    18 ar  
    28    11    29 1   
    29    12    14 ar  
    30    12    30 1   
    31    13    14 ar  
    32    13    31 1   
    33    14    32 1   
    34    15    16 1   
    35    15    33 1   
    36    16    17 1   
@<TRIPOS>SUBSTRUCTURE
     1 WQ8         1 TEMP              0 ****  ****    0 ROOT
