@<TRIPOS>MOLECULE
WQA
   16    17     1     0     0
SMALL
bcc


@<TRIPOS>ATOM
      1 N1          -1.6120    14.9300     1.6260 nb         1 WQA      -0.604000
      2 N3          -4.7930    15.1800     0.4690 na         1 WQA       0.066800
      3 C4          -2.8790    14.7340    -0.4510 ca         1 WQA      -0.211300
      4 C5          -1.7160    14.4250    -1.1850 ca         1 WQA      -0.128000
      5 C           -0.5320    14.3830    -0.4900 ca         1 WQA      -0.003700
      6 C2          -2.7740    14.9750     0.9440 ca         1 WQA       0.260300
      7 C1          -0.5550    14.6490     0.9220 ca         1 WQA       0.404200
      8 C3          -4.2360    14.8820    -0.7130 cc         1 WQA      -0.157100
      9 N2          -3.9600    15.2470     1.4920 nc         1 WQA      -0.249400
     10 H1          -5.7760    15.3440     0.6270 hn         1 WQA       0.322700
     11 H2          -1.7520    14.2310    -2.2500 ha         1 WQA       0.137000
     12 H3           1.3880    13.7370    -0.4880 hn         1 WQA       0.385800
     13 H4           0.6500    13.6690    -1.9710 hn         1 WQA       0.385800
     14 H5           0.3910    14.6130     1.4570 h4         1 WQA       0.018100
     15 H6          -4.8190    14.8000    -1.6140 h4         1 WQA       0.178000
     16 N            0.6940    14.1550    -1.0890 nv         1 WQA      -0.807200
@<TRIPOS>BOND
     1     1     6 ar  
     2     1     7 ar  
     3     2     8 1   
     4     2     9 1   
     5     2    10 1   
     6     3     4 ar  
     7     3     6 ar  
     8     3     8 2   
     9     4     5 ar  
    10     4    11 1   
    11     5     7 ar  
    12     5    16 1   
    13     6     9 2   
    14     7    14 1   
    15     8    15 1   
    16    12    16 1   
    17    13    16 1   
@<TRIPOS>SUBSTRUCTURE
     1 WQA         1 TEMP              0 ****  ****    0 ROOT
