@<TRIPOS>MOLECULE
WQA
   16    17     1     0     0
SMALL
No Charge or Current Charge


@<TRIPOS>ATOM
      1 N1          -1.6160    14.9410     1.6840 nb         1 WQA      -0.604000
      2 N3          -4.8920    15.2200     0.4240 na         1 WQA       0.016500
      3 C4          -2.8490    14.7270    -0.3410 ca         1 WQA      -0.146000
      4 C5          -1.7270    14.3860    -1.1080 ca         1 WQA      -0.110000
      5 C           -0.4960    14.3220    -0.4310 ca         1 WQA       0.200000
      6 C2          -2.7850    14.9950     1.0140 ca         1 WQA       0.195000
      7 C1          -0.5000    14.6110     0.9720 ca         1 WQA       0.338900
      8 C3          -4.2060    14.8700    -0.7320 cc         1 WQA      -0.207100
      9 N2          -4.0440    15.3090     1.5360 nc         1 WQA      -0.249400
     10 H1          -5.8890    15.4030     0.5130 hn         1 WQA       0.373000
     11 H2          -1.8080    14.1810    -2.1720 ha         1 WQA       0.119000
     12 H3           1.5560    13.9060    -0.6660 hn         1 WQA       0.441000
     13 H4           0.6100    13.7600    -2.1300 hn         1 WQA       0.441000
     14 H5           0.4290    14.5750     1.5410 h4         1 WQA       0.018100
     15 H6          -4.7180    14.7590    -1.6830 h4         1 WQA       0.228000
     16 N            0.6540    13.9880    -1.1370 nv         1 WQA      -1.056000
@<TRIPOS>BOND
     1     1     6 ar  
     2     1     7 ar  
     3     2     8 1   
     4     2     9 1   
     5     2    10 1   
     6     3     4 ar  
     7     3     6 ar  
     8     3     8 2   
     9     4     5 ar  
    10     4    11 1   
    11     5     7 ar  
    12     5    16 1   
    13     6     9 2   
    14     7    14 1   
    15     8    15 1   
    16    12    16 1   
    17    13    16 1   
@<TRIPOS>SUBSTRUCTURE
     1 WQA         1 TEMP              0 ****  ****    0 ROOT
