@<TRIPOS>MOLECULE
WQB
   55    56     1     0     0
SMALL
No Charge or Current Charge


@<TRIPOS>ATOM
      1 C1           9.5170    36.4860    22.4380 c3         1 WQB      -0.090100
      2 C2          10.2190    37.8060    22.8200 c3         1 WQB      -0.073400
      3 C3          11.4000    37.6300    23.8010 c3         1 WQB      -0.075400
      4 C4          10.9830    37.1890    25.2270 c3         1 WQB      -0.072400
      5 C01         14.3500    32.6280    26.2860 ca         1 WQB      -0.311500
      6 C02         14.1740    31.4660    25.5040 ca         1 WQB      -0.015500
      7 C03         15.2880    30.8260    24.9350 ca         1 WQB      -0.130000
      8 C04         16.5800    31.3390    25.1440 ca         1 WQB      -0.055000
      9 C05         16.7570    32.4970    25.9210 ca         1 WQB      -0.130000
     10 C06         15.6470    33.1430    26.4910 ca         1 WQB      -0.015500
     11 C16         13.1980    35.9410    25.8280 c3         1 WQB       0.227800
     12 C19         12.1670    37.0260    26.2140 c3         1 WQB      -0.080400
     13 C23         12.2860    34.0330    24.4800 ca         1 WQB       0.277000
     14 C24         10.9940    33.5440    24.2410 ca         1 WQB      -0.101000
     15 C25         10.6520    32.9930    22.9950 ca         1 WQB      -0.070000
     16 C26         11.5980    32.9130    21.9430 ca         1 WQB      -0.149300
     17 C27         12.8940    33.4330    22.1900 ca         1 WQB      -0.070000
     18 C28         13.2280    33.9810    23.4400 ca         1 WQB      -0.101000
     19 C33         11.1770    32.3040    20.5710 c3         1 WQB       0.119300
     20 C34         12.3900    31.7600    19.7050 c3         1 WQB       0.293500
     21 C38         10.3330    33.3710    19.7660 c3         1 WQB       0.293500
     22 F35         13.1410    32.7540    19.1730 f          1 WQB      -0.096167
     23 F36         13.2090    30.9810    20.4510 f          1 WQB      -0.096167
     24 F37         11.9620    30.9970    18.6710 f          1 WQB      -0.096167
     25 F39          9.1960    33.7040    20.4220 f          1 WQB      -0.096167
     26 F40          9.9650    32.9140    18.5450 f          1 WQB      -0.096167
     27 F41         11.0320    34.5160    19.5770 f          1 WQB      -0.096167
     28 N15         12.6200    34.5860    25.7290 nh         1 WQB      -0.785300
     29 O13         11.7840    32.5480    27.0340 o          1 WQB      -0.539000
     30 O14         13.3390    34.2380    28.1670 o          1 WQB      -0.539000
     31 O42         10.3260    31.1680    20.8670 oh         1 WQB      -0.620000
     32 S12         12.9210    33.4740    26.9860 sy         1 WQB       1.198600
     33 H1           8.7510    36.6680    21.6760 hc         1 WQB       0.032367
     34 H2          10.2420    35.7720    22.0310 hc         1 WQB       0.032367
     35 H3           9.0290    36.0290    23.3070 hc         1 WQB       0.032367
     36 H4          10.5960    38.2740    21.9020 hc         1 WQB       0.037200
     37 H5           9.4850    38.5000    23.2470 hc         1 WQB       0.037200
     38 H6          12.1000    36.9020    23.3730 hc         1 WQB       0.033700
     39 H7          11.9410    38.5820    23.8720 hc         1 WQB       0.033700
     40 H8          10.2900    37.9340    25.6370 hc         1 WQB       0.045200
     41 H9          10.4270    36.2460    25.1800 hc         1 WQB       0.045200
     42 H10         13.1780    31.0630    25.3260 ha         1 WQB       0.135000
     43 H11         15.1500    29.9330    24.3310 ha         1 WQB       0.121500
     44 H12         17.4410    30.8420    24.7020 ha         1 WQB       0.118000
     45 H13         17.7570    32.8950    26.0790 ha         1 WQB       0.121500
     46 H14         15.7980    34.0440    27.0840 ha         1 WQB       0.135000
     47 H15         14.0220    35.9650    26.5530 h1         1 WQB       0.049700
     48 H16         13.6550    36.2230    24.8710 h1         1 WQB       0.049700
     49 H17         12.6890    37.9860    26.3090 hc         1 WQB       0.055200
     50 H18         11.7690    36.7900    27.2080 hc         1 WQB       0.055200
     51 H19         10.2470    33.5970    25.0270 ha         1 WQB       0.136500
     52 H20          9.6350    32.6320    22.8530 ha         1 WQB       0.133000
     53 H21         13.6660    33.4260    21.4280 ha         1 WQB       0.133000
     54 H22         14.2340    34.3540    23.6070 ha         1 WQB       0.136500
     55 H23         10.8020    30.6130    21.5230 ho         1 WQB       0.480000
@<TRIPOS>BOND
     1     1     2 1   
     2     1    33 1   
     3     1    34 1   
     4     1    35 1   
     5     2     3 1   
     6     2    36 1   
     7     2    37 1   
     8     3     4 1   
     9     3    38 1   
    10     3    39 1   
    11     4    12 1   
    12     4    40 1   
    13     4    41 1   
    14     5     6 ar  
    15     5    10 ar  
    16     5    32 1   
    17     6     7 ar  
    18     6    42 1   
    19     7     8 ar  
    20     7    43 1   
    21     8     9 ar  
    22     8    44 1   
    23     9    10 ar  
    24     9    45 1   
    25    10    46 1   
    26    11    12 1   
    27    11    28 1   
    28    11    47 1   
    29    11    48 1   
    30    12    49 1   
    31    12    50 1   
    32    13    14 ar  
    33    13    18 ar  
    34    13    28 1   
    35    14    15 ar  
    36    14    51 1   
    37    15    16 ar  
    38    15    52 1   
    39    16    17 ar  
    40    16    19 1   
    41    17    18 ar  
    42    17    53 1   
    43    18    54 1   
    44    19    20 1   
    45    19    21 1   
    46    19    31 1   
    47    20    22 1   
    48    20    23 1   
    49    20    24 1   
    50    21    25 1   
    51    21    26 1   
    52    21    27 1   
    53    28    32 1   
    54    29    32 2   
    55    30    32 2   
    56    31    55 1   
@<TRIPOS>SUBSTRUCTURE
     1 WQB         1 TEMP              0 ****  ****    0 ROOT
