@<TRIPOS>MOLECULE
WQB
   55    56     1     0     0
SMALL
abcg2


@<TRIPOS>ATOM
      1 C1           9.3570    36.5720    22.6960 c3         1 WQB      -0.090100
      2 C2          10.1200    37.8500    23.0440 c3         1 WQB      -0.073400
      3 C3          11.3770    37.6060    23.8820 c3         1 WQB      -0.075400
      4 C4          11.0890    37.1030    25.2970 c3         1 WQB      -0.072400
      5 C01         14.5060    32.6970    26.3020 ca         1 WQB      -0.311500
      6 C02         14.5700    31.6800    25.3510 ca         1 WQB      -0.015500
      7 C03         15.8130    31.2120    24.9460 ca         1 WQB      -0.130000
      8 C04         16.9750    31.7560    25.4860 ca         1 WQB      -0.055000
      9 C05         16.8990    32.7670    26.4390 ca         1 WQB      -0.130000
     10 C06         15.6610    33.2470    26.8510 ca         1 WQB      -0.015500
     11 C16         13.2670    35.7860    25.6380 c3         1 WQB       0.227800
     12 C19         12.3390    36.8820    26.1500 c3         1 WQB      -0.080400
     13 C23         12.1870    33.9660    24.2780 ca         1 WQB       0.277000
     14 C24         10.9010    33.4720    24.0980 ca         1 WQB      -0.101000
     15 C25         10.5200    32.9470    22.8720 ca         1 WQB      -0.070000
     16 C26         11.4140    32.9150    21.8040 ca         1 WQB      -0.149300
     17 C27         12.6940    33.4440    21.9800 ca         1 WQB      -0.070000
     18 C28         13.0810    33.9540    23.2100 ca         1 WQB      -0.101000
     19 C33         10.9550    32.3230    20.4700 c3         1 WQB       0.119300
     20 C34         11.9760    31.2680    19.9320 c3         1 WQB       0.293500
     21 C38         10.7200    33.4620    19.4360 c3         1 WQB       0.293500
     22 F35         13.1790    31.7780    19.6230 f          1 WQB      -0.096167
     23 F36         12.1630    30.3250    20.8750 f          1 WQB      -0.096167
     24 F37         11.5160    30.6480    18.8370 f          1 WQB      -0.096167
     25 F39          9.8130    34.3270    19.9150 f          1 WQB      -0.096167
     26 F40         10.2530    32.9960    18.2680 f          1 WQB      -0.096167
     27 F41         11.8430    34.1490    19.1780 f          1 WQB      -0.096167
     28 N15         12.5800    34.4730    25.5580 nh         1 WQB      -0.785300
     29 O13         11.9500    32.3080    26.6360 o          1 WQB      -0.539000
     30 O14         13.0560    34.1010    27.9690 o          1 WQB      -0.539000
     31 O42          9.7080    31.6850    20.5390 oh         1 WQB      -0.620000
     32 S12         12.9250    33.3650    26.7350 sy         1 WQB       1.198600
     33 H1           8.5010    36.7860    22.0530 hc         1 WQB       0.032367
     34 H2          10.0050    35.8660    22.1710 hc         1 WQB       0.032367
     35 H3           8.9840    36.0670    23.5890 hc         1 WQB       0.032367
     36 H4          10.4080    38.3540    22.1170 hc         1 WQB       0.037200
     37 H5           9.4590    38.5410    23.5780 hc         1 WQB       0.037200
     38 H6          12.0140    36.8920    23.3510 hc         1 WQB       0.033700
     39 H7          11.9510    38.5360    23.9520 hc         1 WQB       0.033700
     40 H8          10.4480    37.8310    25.8040 hc         1 WQB       0.045200
     41 H9          10.5190    36.1720    25.2570 hc         1 WQB       0.045200
     42 H10         13.6630    31.2610    24.9390 ha         1 WQB       0.135000
     43 H11         15.8720    30.4220    24.2090 ha         1 WQB       0.121500
     44 H12         17.9410    31.3860    25.1690 ha         1 WQB       0.118000
     45 H13         17.8030    33.1840    26.8640 ha         1 WQB       0.121500
     46 H14         15.5920    34.0280    27.5950 ha         1 WQB       0.135000
     47 H15         14.1350    35.6990    26.2880 h1         1 WQB       0.049700
     48 H16         13.6420    36.0230    24.6450 h1         1 WQB       0.049700
     49 H17         12.9240    37.8070    26.2000 hc         1 WQB       0.055200
     50 H18         12.0470    36.6350    27.1730 hc         1 WQB       0.055200
     51 H19         10.1990    33.5030    24.9180 ha         1 WQB       0.136500
     52 H20          9.5100    32.5840    22.7550 ha         1 WQB       0.133000
     53 H21         13.4090    33.4540    21.1730 ha         1 WQB       0.133000
     54 H22         14.0860    34.3310    23.3360 ha         1 WQB       0.136500
     55 H23          9.7090    31.0320    21.2530 ho         1 WQB       0.480000
@<TRIPOS>BOND
     1     1     2 1   
     2     1    33 1   
     3     1    34 1   
     4     1    35 1   
     5     2     3 1   
     6     2    36 1   
     7     2    37 1   
     8     3     4 1   
     9     3    38 1   
    10     3    39 1   
    11     4    12 1   
    12     4    40 1   
    13     4    41 1   
    14     5     6 ar  
    15     5    10 ar  
    16     5    32 1   
    17     6     7 ar  
    18     6    42 1   
    19     7     8 ar  
    20     7    43 1   
    21     8     9 ar  
    22     8    44 1   
    23     9    10 ar  
    24     9    45 1   
    25    10    46 1   
    26    11    12 1   
    27    11    28 1   
    28    11    47 1   
    29    11    48 1   
    30    12    49 1   
    31    12    50 1   
    32    13    14 ar  
    33    13    18 ar  
    34    13    28 1   
    35    14    15 ar  
    36    14    51 1   
    37    15    16 ar  
    38    15    52 1   
    39    16    17 ar  
    40    16    19 1   
    41    17    18 ar  
    42    17    53 1   
    43    18    54 1   
    44    19    20 1   
    45    19    21 1   
    46    19    31 1   
    47    20    22 1   
    48    20    23 1   
    49    20    24 1   
    50    21    25 1   
    51    21    26 1   
    52    21    27 1   
    53    28    32 1   
    54    29    32 2   
    55    30    32 2   
    56    31    55 1   
@<TRIPOS>SUBSTRUCTURE
     1 WQB         1 TEMP              0 ****  ****    0 ROOT
