@<TRIPOS>MOLECULE
WQC
   28    29     1     0     0
SMALL
abcg2


@<TRIPOS>ATOM
      1 C01          8.0850     6.1730    18.0130 cc         1 WQC      -0.221000
      2 C02          7.1520     6.6580    17.1410 cd         1 WQC       0.245500
      3 N03          6.5170     7.8030    17.5780 nd         1 WQC      -0.602000
      4 C04          6.9480     8.1900    18.7400 cc         1 WQC       0.386700
      5 C06          6.4440     9.4080    19.4440 c3         1 WQC       0.044300
      6 C10          4.2160     7.4470    20.2070 ca         1 WQC      -0.182000
      7 C11          3.3480     6.3620    20.3310 ca         1 WQC       0.159100
      8 C13          4.0400     6.0620    22.6140 ca         1 WQC      -0.079000
      9 C18          2.6580     6.5540    18.0460 c3         1 WQC       0.138900
     10 S05          8.1730     7.1540    19.4190 ss         1 WQC      -0.150400
     11 S07          6.1430     9.1840    21.2260 ss         1 WQC      -0.229000
     12 C08          5.0110     7.8190    21.2920 ca         1 WQC      -0.037000
     13 C09          6.7920     6.0020    15.8180 c          1 WQC       0.623500
     14 C12          3.2540     5.6700    21.5420 ca         1 WQC      -0.157000
     15 C14          4.9290     7.1270    22.4990 ca         1 WQC      -0.142000
     16 O15          5.8100     6.4720    15.1950 o          1 WQC      -0.704500
     17 O16          7.5130     5.0330    15.4700 o          1 WQC      -0.704500
     18 H19          8.7000     5.2960    17.9010 h4         1 WQC       0.165000
     19 H21          7.1840    10.2110    19.4160 h1         1 WQC       0.081200
     20 H20          5.5490     9.7620    18.9350 h1         1 WQC       0.081200
     21 H22          4.2720     7.9880    19.2780 ha         1 WQC       0.142000
     22 H24          3.9730     5.5230    23.5500 ha         1 WQC       0.102000
     23 H28          1.9670     6.0250    17.3950 h1         1 WQC       0.055033
     24 H29          2.3690     7.6060    18.1100 h1         1 WQC       0.055033
     25 H27          3.6720     6.4770    17.6490 h1         1 WQC       0.055033
     26 H23          2.5750     4.8310    21.6190 ha         1 WQC       0.119000
     27 H25          5.5590     7.4080    23.3340 ha         1 WQC       0.115000
     28 O17          2.5560     5.9160    19.3210 os         1 WQC      -0.361100
@<TRIPOS>BOND
     1     1     2 2   
     2     1    10 1   
     3     1    18 1   
     4     2     3 1   
     5     2    13 1   
     6     3     4 2   
     7     4     5 1   
     8     4    10 1   
     9     5    11 1   
    10     5    19 1   
    11     5    20 1   
    12     6     7 ar  
    13     6    12 ar  
    14     6    21 1   
    15     7    14 ar  
    16     7    28 1   
    17     8    14 ar  
    18     8    15 ar  
    19     8    22 1   
    20     9    23 1   
    21     9    24 1   
    22     9    25 1   
    23     9    28 1   
    24    11    12 1   
    25    12    15 ar  
    26    13    16 1   
    27    13    17 1   
    28    14    26 1   
    29    15    27 1   
@<TRIPOS>SUBSTRUCTURE
     1 WQC         1 TEMP              0 ****  ****    0 ROOT
