@<TRIPOS>MOLECULE
WQC
   28    29     1     0     0
SMALL
No Charge or Current Charge


@<TRIPOS>ATOM
      1 C01          8.1700     6.2640    18.0870 cc         1 WQC      -0.221000
      2 C02          7.1330     6.6120    17.2380 cd         1 WQC       0.245500
      3 N03          6.4650     7.7810    17.6360 nd         1 WQC      -0.602000
      4 C04          6.9910     8.2630    18.7530 cc         1 WQC       0.386700
      5 C06          6.4790     9.5090    19.4310 c3         1 WQC       0.044300
      6 C10          4.1450     7.5120    20.2150 ca         1 WQC      -0.182000
      7 C11          3.3160     6.3700    20.2890 ca         1 WQC       0.159100
      8 C13          4.1770     5.9000    22.5190 ca         1 WQC      -0.079000
      9 C18          2.4430     6.6930    18.0010 c3         1 WQC       0.138900
     10 S05          8.3480     7.3850    19.4050 ss         1 WQC      -0.150400
     11 S07          6.0930     9.2560    21.2320 ss         1 WQC      -0.229000
     12 C08          5.0020     7.8340    21.2860 ca         1 WQC      -0.037000
     13 C09          6.8210     5.7530    16.0140 c          1 WQC       0.623500
     14 C12          3.3350     5.5720    21.4430 ca         1 WQC      -0.157000
     15 C14          5.0080     7.0290    22.4370 ca         1 WQC      -0.142000
     16 O15          5.8980     6.0790    15.2740 o          1 WQC      -0.704500
     17 O16          7.4970     4.7530    15.7920 o          1 WQC      -0.704500
     18 H19          8.8380     5.4170    18.0100 h4         1 WQC       0.165000
     19 H21          7.2380    10.2950    19.3440 h1         1 WQC       0.081200
     20 H20          5.5760     9.8600    18.9180 h1         1 WQC       0.081200
     21 H22          4.1230     8.1470    19.3380 ha         1 WQC       0.142000
     22 H24          4.1880     5.2790    23.4120 ha         1 WQC       0.102000
     23 H28          1.7270     6.2160    17.3190 h1         1 WQC       0.055033
     24 H29          2.1340     7.7370    18.1390 h1         1 WQC       0.055033
     25 H27          3.4300     6.6780    17.5200 h1         1 WQC       0.055033
     26 H23          2.6960     4.6950    21.5030 ha         1 WQC       0.119000
     27 H25          5.6630     7.2770    23.2690 ha         1 WQC       0.115000
     28 O17          2.4740     5.9950    19.2600 os         1 WQC      -0.361100
@<TRIPOS>BOND
     1     1     2 2   
     2     1    10 1   
     3     1    18 1   
     4     2     3 1   
     5     2    13 1   
     6     3     4 2   
     7     4     5 1   
     8     4    10 1   
     9     5    11 1   
    10     5    19 1   
    11     5    20 1   
    12     6     7 ar  
    13     6    12 ar  
    14     6    21 1   
    15     7    14 ar  
    16     7    28 1   
    17     8    14 ar  
    18     8    15 ar  
    19     8    22 1   
    20     9    23 1   
    21     9    24 1   
    22     9    25 1   
    23     9    28 1   
    24    11    12 1   
    25    12    15 ar  
    26    13    16 1   
    27    13    17 1   
    28    14    26 1   
    29    15    27 1   
@<TRIPOS>SUBSTRUCTURE
     1 WQC         1 TEMP              0 ****  ****    0 ROOT
