@<TRIPOS>MOLECULE
WQD
   57    59     1     0     0
SMALL
bcc


@<TRIPOS>ATOM
      1 C21        -12.8290   -33.1640    -4.9500 c3         1 WQD       0.199400
      2 C22        -12.7040   -34.6500    -5.2150 c5         1 WQD       0.134100
      3 C24        -10.8350   -35.6180    -4.1170 c5         1 WQD       0.064100
      4 C28         -7.8390   -33.4800    -6.4150 cc         1 WQD      -0.369200
      5 C05        -10.2260   -31.1410     0.4300 c6         1 WQD       0.398900
      6 C06         -9.9170   -31.0910     1.9270 c6         1 WQD       0.124100
      7 C07        -10.9730   -30.2890     2.6770 c6         1 WQD       0.094100
      8 C08        -11.1460   -28.9090     2.0220 c6         1 WQD       0.032700
      9 C09        -11.4150   -29.0990     0.5370 c6         1 WQD       0.129400
     10 C23        -12.3530   -35.4980    -3.9940 c5         1 WQD       0.087100
     11 C25        -10.6770   -35.7190    -5.6320 c5         1 WQD       0.311500
     12 C27         -9.0210   -33.9640    -6.0000 cd         1 WQD       0.098600
     13 C29         -6.8760   -34.3690    -7.0160 c          1 WQD       0.736700
     14 C31         -8.5200   -36.2000    -6.6900 c          1 WQD       0.831500
     15 N11         -9.9930   -28.0560     2.2220 ns         1 WQD      -0.555900
     16 N26         -9.3770   -35.2790    -6.1190 n          1 WQD      -0.367000
     17 N30         -7.3210   -35.6800    -7.1050 ns         1 WQD      -0.611500
     18 O02        -10.2460   -33.4040    -1.5260 o          1 WQD      -0.851000
     19 O03        -12.7230   -33.7610    -0.7540 o          1 WQD      -0.851000
     20 O04        -11.3700   -31.9140     0.2380 os         1 WQD      -0.577200
     21 O10        -10.3830   -29.8450    -0.0780 os         1 WQD      -0.408600
     22 O13        -10.6330   -27.0900     4.1840 o          1 WQD      -0.650100
     23 O14        -10.5560   -30.2150     4.0160 oh         1 WQD      -0.620800
     24 O15         -9.8150   -32.4140     2.3870 oh         1 WQD      -0.557800
     25 O16        -12.1370   -31.7440    -2.1540 os         1 WQD      -0.724800
     26 O18        -12.5800   -30.2980    -4.1400 o          1 WQD      -0.840000
     27 O19        -10.1080   -30.8880    -3.5240 o          1 WQD      -0.840000
     28 O20        -11.6070   -32.6570    -4.4630 os         1 WQD      -0.599200
     29 O32         -8.7860   -37.3760    -6.8200 o          1 WQD      -0.665500
     30 O33         -5.7710   -34.0620    -7.4200 o          1 WQD      -0.660500
     31 O34        -11.6760   -34.9080    -6.1800 os         1 WQD      -0.419600
     32 O35        -10.2890   -36.7550    -3.5060 oh         1 WQD      -0.616800
     33 O36        -12.9620   -36.7590    -4.1440 oh         1 WQD      -0.622800
     34 P01        -11.5750   -32.8680    -1.0960 p5         1 WQD       1.476800
     35 P17        -11.5540   -31.2470    -3.6100 p5         1 WQD       1.467800
     36 H1         -13.1160   -32.6540    -5.8750 h1         1 WQD       0.033700
     37 H2         -13.6500   -33.0270    -4.2370 h1         1 WQD       0.033700
     38 H3         -13.6630   -34.9790    -5.6290 h1         1 WQD       0.055700
     39 H4         -10.3730   -34.7040    -3.7370 h1         1 WQD       0.137700
     40 H5          -7.6040   -32.4340    -6.3010 ha         1 WQD       0.182000
     41 H6          -9.3720   -31.5630    -0.1070 h2         1 WQD       0.111700
     42 H7          -8.9540   -30.5690     2.0330 h1         1 WQD       0.013700
     43 H8         -11.9380   -30.8100     2.5950 h1         1 WQD       0.079700
     44 H9         -12.0140   -28.4100     2.4600 h1         1 WQD       0.060700
     45 H10        -11.4470   -28.1330     0.0320 h1         1 WQD       0.067200
     46 H11        -12.3910   -29.5730     0.4000 h1         1 WQD       0.067200
     47 H12         -8.8790   -26.7030     3.2320 h5         1 WQD      -0.015800
     48 H13        -12.6590   -35.0160    -3.0570 h1         1 WQD       0.119700
     49 H14        -10.7890   -36.7570    -5.9520 h2         1 WQD       0.088700
     50 H15         -9.7600   -33.3160    -5.5480 h4         1 WQD       0.233000
     51 H16         -9.2340   -28.1090     1.5600 hn         1 WQD       0.328500
     52 H17         -6.6830   -36.3510    -7.5160 hn         1 WQD       0.315500
     53 H19        -11.2120   -29.7230     4.5190 ho         1 WQD       0.405000
     54 H20         -9.5030   -32.3900     3.2970 ho         1 WQD       0.387000
     55 H22        -10.0700   -36.5360    -2.5950 ho         1 WQD       0.435000
     56 H23        -12.4530   -37.3910    -3.6220 ho         1 WQD       0.413000
     57 C12         -9.8350   -27.2470     3.2760 c          1 WQD       0.668900
@<TRIPOS>BOND
     1     1     2 1   
     2     1    28 1   
     3     1    36 1   
     4     1    37 1   
     5     2    10 1   
     6     2    31 1   
     7     2    38 1   
     8     3    10 1   
     9     3    11 1   
    10     3    32 1   
    11     3    39 1   
    12     4    12 2   
    13     4    13 1   
    14     4    40 1   
    15     5     6 1   
    16     5    20 1   
    17     5    21 1   
    18     5    41 1   
    19     6     7 1   
    20     6    24 1   
    21     6    42 1   
    22     7     8 1   
    23     7    23 1   
    24     7    43 1   
    25     8     9 1   
    26     8    15 1   
    27     8    44 1   
    28     9    21 1   
    29     9    45 1   
    30     9    46 1   
    31    10    33 1   
    32    10    48 1   
    33    11    16 1   
    34    11    31 1   
    35    11    49 1   
    36    12    16 1   
    37    12    50 1   
    38    13    17 1   
    39    13    30 2   
    40    14    16 1   
    41    14    17 1   
    42    14    29 2   
    43    15    51 1   
    44    15    57 1   
    45    17    52 1   
    46    18    34 1   
    47    19    34 1   
    48    20    34 1   
    49    22    57 2   
    50    23    53 1   
    51    24    54 1   
    52    25    34 1   
    53    25    35 1   
    54    26    35 1   
    55    27    35 1   
    56    28    35 1   
    57    32    55 1   
    58    33    56 1   
    59    47    57 1   
@<TRIPOS>SUBSTRUCTURE
     1 WQD         1 TEMP              0 ****  ****    0 ROOT
