@<TRIPOS>MOLECULE
WQD
   57    59     1     0     0
SMALL
No Charge or Current Charge


@<TRIPOS>ATOM
      1 C21        -12.9350   -33.1810    -5.0950 c3         1 WQD       0.222600
      2 C22        -12.7080   -34.6950    -5.3830 c5         1 WQD       0.157300
      3 C24        -10.8820   -35.5880    -4.0710 c5         1 WQD       0.087300
      4 C28         -7.5490   -33.6640    -6.1370 cc         1 WQD      -0.419200
      5 C05        -10.8610   -30.5350    -0.1130 c6         1 WQD       0.445300
      6 C06         -9.9480   -30.9030     1.1220 c6         1 WQD       0.147300
      7 C07        -10.6870   -30.5460     2.4470 c6         1 WQD       0.117300
      8 C08        -11.1390   -29.0540     2.4480 c6         1 WQD       0.032700
      9 C09        -12.0240   -28.8290     1.1920 c6         1 WQD       0.152600
     10 C23        -12.4360   -35.5700    -4.1040 c5         1 WQD       0.110300
     11 C25        -10.6180   -35.7600    -5.6040 c5         1 WQD       0.334700
     12 C27         -8.8610   -34.0050    -5.9000 cd         1 WQD       0.048600
     13 C29         -6.5210   -34.6700    -6.3710 c          1 WQD       0.594200
     14 C31         -8.2630   -36.3630    -6.1110 c          1 WQD       0.622000
     15 N11        -10.0000   -28.1050     2.4510 ns         1 WQD      -0.488900
     16 N26         -9.2170   -35.3550    -5.8760 n          1 WQD      -0.300000
     17 N30         -6.9880   -35.9420    -6.3360 ns         1 WQD      -0.477500
     18 O02        -10.7390   -33.0050    -1.7050 o          1 WQD      -0.851000
     19 O03        -13.0570   -33.5050    -1.0710 o          1 WQD      -0.851000
     20 O04        -12.0290   -31.3560    -0.2060 os         1 WQD      -0.600400
     21 O10        -11.2860   -29.1530    -0.0120 os         1 WQD      -0.455000
     22 O13         -9.3270   -28.3640     4.6080 o          1 WQD      -0.650100
     23 O14         -9.8500   -30.8360     3.5840 oh         1 WQD      -0.683000
     24 O15         -9.5400   -32.2850     1.1830 oh         1 WQD      -0.680000
     25 O16        -12.7050   -31.4810    -2.4950 os         1 WQD      -0.724800
     26 O18        -12.6450   -30.2500    -4.6830 o          1 WQD      -0.840000
     27 O19        -10.5330   -30.5820    -3.4920 o          1 WQD      -0.840000
     28 O20        -11.7790   -32.6290    -4.4480 os         1 WQD      -0.622400
     29 O32         -8.5280   -37.5540    -6.1270 o          1 WQD      -0.590000
     30 O33         -5.3490   -34.4130    -6.5820 o          1 WQD      -0.585000
     31 O34        -11.5490   -34.8660    -6.2500 os         1 WQD      -0.466000
     32 O35        -10.3880   -36.6690    -3.2410 oh         1 WQD      -0.739000
     33 O36        -12.9220   -36.9190    -4.2300 oh         1 WQD      -0.745000
     34 P01        -12.0780   -32.4270    -1.4010 p5         1 WQD       1.476800
     35 P17        -11.8720   -31.1640    -3.7910 p5         1 WQD       1.467800
     36 H1         -13.1280   -32.6660    -6.0460 h1         1 WQD       0.033700
     37 H2         -13.8270   -33.0720    -4.4640 h1         1 WQD       0.033700
     38 H3         -13.5950   -35.0640    -5.9150 h1         1 WQD       0.055700
     39 H4         -10.4920   -34.6170    -3.7310 h1         1 WQD       0.137700
     40 H5          -7.2140   -32.6330    -6.1630 ha         1 WQD       0.232000
     41 H6         -10.2460   -30.6390    -1.0210 h2         1 WQD       0.111700
     42 H7          -9.0470   -30.2770     1.0570 h1         1 WQD       0.013700
     43 H8         -11.5970   -31.1660     2.4980 h1         1 WQD       0.079700
     44 H9         -11.7510   -28.8620     3.3410 h1         1 WQD       0.060700
     45 H10        -12.3410   -27.7780     1.1430 h1         1 WQD       0.067200
     46 H11        -12.9320   -29.4460     1.2470 h1         1 WQD       0.067200
     47 H12         -8.4580   -27.0110     3.3120 h5         1 WQD      -0.015800
     48 H13        -12.8460   -35.0900    -3.2030 h1         1 WQD       0.119700
     49 H14        -10.7830   -36.7930    -5.9360 h2         1 WQD       0.088700
     50 H15         -9.6760   -33.3010    -5.7230 h4         1 WQD       0.283000
     51 H16         -9.8050   -27.5900     1.5990 hn         1 WQD       0.328500
     52 H17         -6.3080   -36.6660    -6.4990 hn         1 WQD       0.315500
     53 H19         -9.6640   -29.9580     4.0140 ho         1 WQD       0.444000
     54 H20         -9.3380   -32.4310     2.1370 ho         1 WQD       0.486000
     55 H22        -10.1160   -36.2730    -2.3760 ho         1 WQD       0.534000
     56 H23        -12.2090   -37.4590    -3.8020 ho         1 WQD       0.512000
     57 C12         -9.2060   -27.7950     3.5300 c          1 WQD       0.601900
@<TRIPOS>BOND
     1     1     2 1   
     2     1    28 1   
     3     1    36 1   
     4     1    37 1   
     5     2    10 1   
     6     2    31 1   
     7     2    38 1   
     8     3    10 1   
     9     3    11 1   
    10     3    32 1   
    11     3    39 1   
    12     4    12 2   
    13     4    13 1   
    14     4    40 1   
    15     5     6 1   
    16     5    20 1   
    17     5    21 1   
    18     5    41 1   
    19     6     7 1   
    20     6    24 1   
    21     6    42 1   
    22     7     8 1   
    23     7    23 1   
    24     7    43 1   
    25     8     9 1   
    26     8    15 1   
    27     8    44 1   
    28     9    21 1   
    29     9    45 1   
    30     9    46 1   
    31    10    33 1   
    32    10    48 1   
    33    11    16 1   
    34    11    31 1   
    35    11    49 1   
    36    12    16 1   
    37    12    50 1   
    38    13    17 1   
    39    13    30 2   
    40    14    16 1   
    41    14    17 1   
    42    14    29 2   
    43    15    51 1   
    44    15    57 1   
    45    17    52 1   
    46    18    34 1   
    47    19    34 1   
    48    20    34 1   
    49    22    57 2   
    50    23    53 1   
    51    24    54 1   
    52    25    34 1   
    53    25    35 1   
    54    26    35 1   
    55    27    35 1   
    56    28    35 1   
    57    32    55 1   
    58    33    56 1   
    59    47    57 1   
@<TRIPOS>SUBSTRUCTURE
     1 WQD         1 TEMP              0 ****  ****    0 ROOT
