@<TRIPOS>MOLECULE
WQG
   17    18     1     0     0
SMALL
bcc


@<TRIPOS>ATOM
      1 N1          -4.6320    15.0120     0.0500 ns         1 WQG      -0.499400
      2 C4          -2.3040    14.8040    -0.3030 ca         1 WQG      -0.201600
      3 C5          -1.1690    14.7490    -1.1170 ca         1 WQG      -0.059000
      4 C6           0.0770    14.5850    -0.5520 ca         1 WQG      -0.149000
      5 C7           0.2030    14.4730     0.8370 ca         1 WQG      -0.093000
      6 C8          -0.9090    14.5250     1.6500 ca         1 WQG      -0.120000
      7 C1          -3.6280    14.9780    -0.8920 c          1 WQG       0.718100
      8 C2          -4.4200    14.8950     1.3860 cc         1 WQG       0.500800
      9 N2          -3.2740    14.7400     1.9340 nd         1 WQG      -0.620100
     10 C3          -2.1830    14.6910     1.0920 ca         1 WQG       0.178400
     11 H1          -5.5820    15.1340    -0.2770 hn         1 WQG       0.331500
     12 H2          -1.2750    14.8350    -2.1900 ha         1 WQG       0.154000
     13 H3           0.9560    14.5430    -1.1800 ha         1 WQG       0.138000
     14 H4           1.1820    14.3450     1.2780 ha         1 WQG       0.136000
     15 H5          -0.8170    14.4400     2.7250 ha         1 WQG       0.151000
     16 H6          -5.3130    14.9410     1.9980 h5         1 WQG       0.046800
     17 O1          -3.8670    15.0860    -2.0810 o          1 WQG      -0.609500
@<TRIPOS>BOND
     1     1     7 1   
     2     1     8 1   
     3     1    11 1   
     4     2     3 ar  
     5     2     7 1   
     6     2    10 ar  
     7     3     4 ar  
     8     3    12 1   
     9     4     5 ar  
    10     4    13 1   
    11     5     6 ar  
    12     5    14 1   
    13     6    10 ar  
    14     6    15 1   
    15     7    17 2   
    16     8     9 2   
    17     8    16 1   
    18     9    10 1   
@<TRIPOS>SUBSTRUCTURE
     1 WQG         1 TEMP              0 ****  ****    0 ROOT
