@<TRIPOS>MOLECULE
WQG
   17    18     1     0     0
SMALL
No Charge or Current Charge


@<TRIPOS>ATOM
      1 N1          -4.6510    15.0140     0.0470 ns         1 WQG      -0.432400
      2 C4          -2.3090    14.8050    -0.2980 ca         1 WQG      -0.201600
      3 C5          -1.1670    14.7500    -1.1260 ca         1 WQG      -0.041000
      4 C6           0.1060    14.5820    -0.5580 ca         1 WQG      -0.131000
      5 C7           0.2410    14.4690     0.8340 ca         1 WQG      -0.075000
      6 C8          -0.8980    14.5240     1.6540 ca         1 WQG      -0.102000
      7 C1          -3.6640    14.9810    -0.8760 c          1 WQG       0.575600
      8 C2          -4.4570    14.8980     1.3990 cc         1 WQG       0.500800
      9 N2          -3.2720    14.7370     1.9910 nd         1 WQG      -0.620100
     10 C3          -2.1820    14.6920     1.1020 ca         1 WQG       0.178400
     11 H1          -5.5890    15.1330    -0.3040 hn         1 WQG       0.331500
     12 H2          -1.2630    14.8360    -2.2070 ha         1 WQG       0.136000
     13 H3           0.9860    14.5400    -1.1960 ha         1 WQG       0.120000
     14 H4           1.2260    14.3390     1.2780 ha         1 WQG       0.118000
     15 H5          -0.7850    14.4360     2.7320 ha         1 WQG       0.133000
     16 H6          -5.3840    14.9510     1.9570 h5         1 WQG       0.046800
     17 O1          -3.8930    15.0890    -2.0710 o          1 WQG      -0.534000
@<TRIPOS>BOND
     1     1     7 1   
     2     1     8 1   
     3     1    11 1   
     4     2     3 ar  
     5     2     7 1   
     6     2    10 ar  
     7     3     4 ar  
     8     3    12 1   
     9     4     5 ar  
    10     4    13 1   
    11     5     6 ar  
    12     5    14 1   
    13     6    10 ar  
    14     6    15 1   
    15     7    17 2   
    16     8     9 2   
    17     8    16 1   
    18     9    10 1   
@<TRIPOS>SUBSTRUCTURE
     1 WQG         1 TEMP              0 ****  ****    0 ROOT
