@<TRIPOS>MOLECULE
WQJ
   21    22     1     0     0
SMALL
No Charge or Current Charge


@<TRIPOS>ATOM
      1 N1           0.9640    14.0540    -1.0550 nv         1 WQJ      -1.063000
      2 C4          -3.9270    14.8100    -0.6840 c6         1 WQJ       0.204900
      3 C5          -4.8020    15.4620     1.4790 c6         1 WQJ       0.151600
      4 C6          -3.5410    15.0500     2.2610 c6         1 WQJ      -0.154700
      5 C7          -2.3590    14.7960     1.3350 ca         1 WQJ       0.318300
      6 C8          -0.0770    14.4460     1.1500 ca         1 WQJ       0.285900
      7 C1          -0.1480    14.3000    -0.2660 ca         1 WQJ       0.234000
      8 C2          -1.4100    14.4140    -0.8720 ca         1 WQJ      -0.139000
      9 C3          -2.5360    14.6630    -0.0610 ca         1 WQJ      -0.126300
     10 O1          -4.9480    14.6190     0.3200 os         1 WQJ      -0.443000
     11 N2          -1.1550    14.6880     1.9400 nb         1 WQJ      -0.642000
     12 H1           1.8780    13.8870    -0.6320 hn         1 WQJ       0.448000
     13 H2           0.8620    13.8730    -2.0540 hn         1 WQJ       0.448000
     14 H4          -4.0660    14.0650    -1.4800 h1         1 WQJ       0.053700
     15 H5          -4.7260    16.5110     1.1550 h1         1 WQJ       0.048700
     16 H6          -5.6920    15.3640     2.1160 h1         1 WQJ       0.048700
     17 H7          -3.7520    14.1360     2.8310 hc         1 WQJ       0.068200
     18 H8          -3.2940    15.8290     2.9940 hc         1 WQJ       0.068200
     19 H9           0.8800    14.3660     1.6650 h4         1 WQJ       0.017100
     20 H10         -1.5170    14.3130    -1.9490 ha         1 WQJ       0.117000
     21 H3          -4.0330    15.8110    -1.1260 h1         1 WQJ       0.053700
@<TRIPOS>BOND
     1     1     7 1   
     2     1    12 1   
     3     1    13 1   
     4     2     9 1   
     5     2    10 1   
     6     2    14 1   
     7     2    21 1   
     8     3     4 1   
     9     3    10 1   
    10     3    15 1   
    11     3    16 1   
    12     4     5 1   
    13     4    17 1   
    14     4    18 1   
    15     5     9 ar  
    16     5    11 ar  
    17     6     7 ar  
    18     6    11 ar  
    19     6    19 1   
    20     7     8 ar  
    21     8     9 ar  
    22     8    20 1   
@<TRIPOS>SUBSTRUCTURE
     1 WQJ         1 TEMP              0 ****  ****    0 ROOT
