@<TRIPOS>MOLECULE
WQJ
   21    22     1     0     0
SMALL
abcg2


@<TRIPOS>ATOM
      1 N1           0.9680    14.2190    -1.0490 nv         1 WQJ      -1.063000
      2 C4          -3.9220    14.7810    -0.6310 c6         1 WQJ       0.204900
      3 C5          -4.7350    15.4740     1.4430 c6         1 WQJ       0.151600
      4 C6          -3.5350    15.0000     2.2450 c6         1 WQJ      -0.154700
      5 C7          -2.3570    14.7770     1.3390 ca         1 WQJ       0.318300
      6 C8          -0.0960    14.4800     1.1120 ca         1 WQJ       0.285900
      7 C1          -0.1680    14.3680    -0.2830 ca         1 WQJ       0.234000
      8 C2          -1.4380    14.4640    -0.8490 ca         1 WQJ      -0.139000
      9 C3          -2.5430    14.6640    -0.0360 ca         1 WQJ      -0.126300
     10 O1          -4.9410    14.6390     0.3230 os         1 WQJ      -0.443000
     11 N2          -1.1470    14.6780     1.8850 nb         1 WQJ      -0.642000
     12 H1           1.7580    13.8120    -0.5750 hn         1 WQJ       0.448000
     13 H2           0.8280    13.8010    -1.9550 hn         1 WQJ       0.448000
     14 H4          -4.0740    14.0050    -1.3840 h1         1 WQJ       0.053700
     15 H5          -4.5880    16.5150     1.1220 h1         1 WQJ       0.048700
     16 H6          -5.6440    15.4410     2.0440 h1         1 WQJ       0.048700
     17 H7          -3.7830    14.0720     2.7700 hc         1 WQJ       0.068200
     18 H8          -3.2880    15.7360     3.0130 hc         1 WQJ       0.068200
     19 H9           0.8690    14.4060     1.6060 h4         1 WQJ       0.017100
     20 H10         -1.5610    14.3760    -1.9230 ha         1 WQJ       0.117000
     21 H3          -4.0050    15.7490    -1.1480 h1         1 WQJ       0.053700
@<TRIPOS>BOND
     1     1     7 1   
     2     1    12 1   
     3     1    13 1   
     4     2     9 1   
     5     2    10 1   
     6     2    14 1   
     7     2    21 1   
     8     3     4 1   
     9     3    10 1   
    10     3    15 1   
    11     3    16 1   
    12     4     5 1   
    13     4    17 1   
    14     4    18 1   
    15     5     9 ar  
    16     5    11 ar  
    17     6     7 ar  
    18     6    11 ar  
    19     6    19 1   
    20     7     8 ar  
    21     8     9 ar  
    22     8    20 1   
@<TRIPOS>SUBSTRUCTURE
     1 WQJ         1 TEMP              0 ****  ****    0 ROOT
