@<TRIPOS>MOLECULE
WQK
   56    59     1     0     0
SMALL
abcg2


@<TRIPOS>ATOM
      1 N1          11.5730   -11.6560    12.7550 nb         1 WQK      -0.218000
      2 C7          11.2870   -11.1780    11.5010 ca         1 WQK       0.376900
      3 C8          12.7150   -11.2900    13.2750 ca         1 WQK       0.173900
      4 N2          12.0540   -10.4000    10.7720 nb         1 WQK      -0.230000
      5 C9          13.6310   -10.4440    12.6050 ca         1 WQK      -0.179000
      6 O1           6.5480    -9.0850     6.1170 o          1 WQK      -0.542500
      7 C1           8.4410   -12.2360     9.3860 ca         1 WQK      -0.151300
      8 C5           9.6280   -10.1220     9.1490 ca         1 WQK      -0.149000
      9 C6           9.4040   -11.3150     9.8510 ca         1 WQK       0.372000
     10 N3          15.8700    -6.7770     9.8470 n          1 WQK      -0.415800
     11 C4           8.9220    -9.8450     7.9950 ca         1 WQK      -0.004000
     12 C3           7.9860   -10.7620     7.5240 ca         1 WQK      -0.348500
     13 C2           7.7510   -11.9440     8.2170 ca         1 WQK       0.023000
     14 N4           8.2280   -10.3330     4.8200 n7         1 WQK      -0.862300
     15 N           10.0760   -11.6210    11.0310 nu         1 WQK      -0.935900
     16 C10         14.8690   -10.0380    13.1440 ca         1 WQK      -0.062000
     17 C11         15.7010    -9.2300    12.4120 ca         1 WQK      -0.093000
     18 C12         15.3090    -8.7850    11.1280 ca         1 WQK      -0.087600
     19 C13         14.1070    -9.1750    10.5820 ca         1 WQK      -0.086000
     20 C14         13.2410   -10.0160    11.3110 ca         1 WQK       0.066000
     21 C15         16.2770    -7.9590    10.3320 c          1 WQK       0.607700
     22 C16         16.7130    -6.0440     8.8910 c5         1 WQK       0.098000
     23 C17         15.7300    -5.0830     8.2330 c5         1 WQK      -0.093400
     24 C18         14.7940    -4.7230     9.3850 c5         1 WQK      -0.092400
     25 C19         14.6240    -6.0300    10.1770 c5         1 WQK       0.119700
     26 C20         14.4320    -5.7820    11.6660 c3         1 WQK      -0.107100
     27 C21          9.0710   -11.5080     4.5710 c3         1 WQK       0.179100
     28 O2           6.2550   -11.5350     5.7420 o          1 WQK      -0.542500
     29 S            7.1180   -10.4120     6.0270 sy         1 WQK       1.172600
     30 H1          12.9540   -11.6630    14.2670 h4         1 WQK       0.029100
     31 H2          10.3580    -9.4200     9.5150 ha         1 WQK       0.146000
     32 H3           9.1000    -8.9170     7.4670 ha         1 WQK       0.118000
     33 H4           7.0230   -12.6490     7.8400 ha         1 WQK       0.141000
     34 H5           8.7390    -9.4570     4.8620 hn         1 WQK       0.475000
     35 H6           9.6570   -12.3190    11.6260 hn         1 WQK       0.519000
     36 H7           9.0770   -14.1020    10.2630 hc         1 WQK       0.047367
     37 H8           7.7580   -13.3160    11.1270 hc         1 WQK       0.047367
     38 H9           7.4420   -14.1200     9.5900 hc         1 WQK       0.047367
     39 H10         15.1520   -10.3750    14.1340 ha         1 WQK       0.122000
     40 H11         16.6580    -8.9180    12.8080 ha         1 WQK       0.135000
     41 H12         13.8050    -8.8540     9.5940 ha         1 WQK       0.138000
     42 H13         17.1800    -6.7420     8.1990 h1         1 WQK       0.060200
     43 H14         17.5060    -5.5050     9.4180 h1         1 WQK       0.060200
     44 H15         15.1820    -5.5970     7.4400 hc         1 WQK       0.056200
     45 H16         16.2280    -4.2160     7.8000 hc         1 WQK       0.056200
     46 H17         15.2660    -3.9730    10.0250 hc         1 WQK       0.055700
     47 H18         13.8310    -4.3320     9.0600 hc         1 WQK       0.055700
     48 H19         13.7690    -6.5820     9.7830 h1         1 WQK       0.054700
     49 H20         14.2390    -6.6990    12.2200 hc         1 WQK       0.047367
     50 H21         15.3170    -5.2980    12.0850 hc         1 WQK       0.047367
     51 H22         13.5780    -5.1180    11.8080 hc         1 WQK       0.047367
     52 H23          9.6490   -11.3160     3.6690 h1         1 WQK       0.053033
     53 H24          9.7550   -11.7160     5.3980 h1         1 WQK       0.053033
     54 H25          8.4370   -12.3750     4.4020 h1         1 WQK       0.053033
     55 C            8.1660   -13.5130    10.1300 c3         1 WQK      -0.050800
     56 O           17.4100    -8.4120    10.1200 o          1 WQK      -0.603100
@<TRIPOS>BOND
     1     1     2 ar  
     2     1     3 ar  
     3     2     4 ar  
     4     2    15 1   
     5     3     5 ar  
     6     3    30 1   
     7     4    20 ar  
     8     5    16 ar  
     9     5    20 ar  
    10     6    29 2   
    11     7     9 ar  
    12     7    13 ar  
    13     7    55 1   
    14     8     9 ar  
    15     8    11 ar  
    16     8    31 1   
    17     9    15 1   
    18    10    21 1   
    19    10    22 1   
    20    10    25 1   
    21    11    12 ar  
    22    11    32 1   
    23    12    13 ar  
    24    12    29 1   
    25    13    33 1   
    26    14    27 1   
    27    14    29 1   
    28    14    34 1   
    29    15    35 1   
    30    16    17 ar  
    31    16    39 1   
    32    17    18 ar  
    33    17    40 1   
    34    18    19 ar  
    35    18    21 1   
    36    19    20 ar  
    37    19    41 1   
    38    21    56 2   
    39    22    23 1   
    40    22    42 1   
    41    22    43 1   
    42    23    24 1   
    43    23    44 1   
    44    23    45 1   
    45    24    25 1   
    46    24    46 1   
    47    24    47 1   
    48    25    26 1   
    49    25    48 1   
    50    26    49 1   
    51    26    50 1   
    52    26    51 1   
    53    27    52 1   
    54    27    53 1   
    55    27    54 1   
    56    28    29 2   
    57    36    55 1   
    58    37    55 1   
    59    38    55 1   
@<TRIPOS>SUBSTRUCTURE
     1 WQK         1 TEMP              0 ****  ****    0 ROOT
