@<TRIPOS>MOLECULE
WQK
   56    59     1     0     0
SMALL
No Charge or Current Charge


@<TRIPOS>ATOM
      1 N1          11.5480   -11.7720    12.8030 nb         1 WQK      -0.218000
      2 C7          11.2910   -11.2560    11.5900 ca         1 WQK       0.376900
      3 C8          12.7160   -11.4160    13.3720 ca         1 WQK       0.173900
      4 N2          12.0940   -10.4380    10.8800 nb         1 WQK      -0.230000
      5 C9          13.6180   -10.5540    12.7190 ca         1 WQK      -0.179000
      6 O1           7.0490    -8.7780     5.8180 o          1 WQK      -0.542500
      7 C1           8.5500   -12.2860     9.2440 ca         1 WQK      -0.151300
      8 C5           9.4560   -10.0250     9.3290 ca         1 WQK      -0.149000
      9 C6           9.3850   -11.3250     9.8630 ca         1 WQK       0.372000
     10 N3          15.8300    -6.9010     9.7740 n          1 WQK      -0.415800
     11 C4           8.7320    -9.6780     8.1790 ca         1 WQK      -0.004000
     12 C3           7.9160   -10.6370     7.5530 ca         1 WQK      -0.348500
     13 C2           7.8240   -11.9350     8.0880 ca         1 WQK       0.023000
     14 N4           7.9160   -10.9290     4.8820 n7         1 WQK      -0.862300
     15 N           10.0940   -11.6700    11.0210 nu         1 WQK      -0.935900
     16 C10         14.8410   -10.1930    13.3090 ca         1 WQK      -0.062000
     17 C11         15.7170    -9.3330    12.6270 ca         1 WQK      -0.093000
     18 C12         15.3730    -8.8150    11.3590 ca         1 WQK      -0.087600
     19 C13         14.1510    -9.2120    10.7690 ca         1 WQK      -0.086000
     20 C14         13.2640   -10.0710    11.4410 ca         1 WQK       0.066000
     21 C15         16.3390    -7.8920    10.6460 c          1 WQK       0.607700
     22 C16         16.7160    -6.1910     8.8300 c5         1 WQK       0.098000
     23 C17         15.6720    -5.4340     7.9800 c5         1 WQK      -0.093400
     24 C18         14.7380    -4.9050     9.0910 c5         1 WQK      -0.092400
     25 C19         14.5650    -6.1470    10.0180 c5         1 WQK       0.119700
     26 C20         14.3150    -5.7420    11.4900 c3         1 WQK      -0.107100
     27 C21          9.3800   -10.7500     4.9440 c3         1 WQK       0.179100
     28 O2           5.7280   -10.9690     6.0720 o          1 WQK      -0.542500
     29 S            6.9860   -10.2180     6.0710 sy         1 WQK       1.172600
     30 H1          12.9290   -11.8290    14.3560 h4         1 WQK       0.029100
     31 H2          10.0600    -9.2660     9.8140 ha         1 WQK       0.146000
     32 H3           8.8080    -8.6660     7.7840 ha         1 WQK       0.118000
     33 H4           7.1910   -12.6770     7.6020 ha         1 WQK       0.141000
     34 H5           7.5560   -10.4490     4.0590 hn         1 WQK       0.475000
     35 H6           9.6950   -12.4710    11.5060 hn         1 WQK       0.519000
     36 H7           9.4090   -14.1900     9.8730 hc         1 WQK       0.047367
     37 H8           7.9640   -13.7110    10.7870 hc         1 WQK       0.047367
     38 H9           7.8090   -14.3440     9.1460 hc         1 WQK       0.047367
     39 H10         15.1150   -10.5750    14.2910 ha         1 WQK       0.122000
     40 H11         16.6610    -9.0560    13.0910 ha         1 WQK       0.135000
     41 H12         13.8930    -8.8770     9.7680 ha         1 WQK       0.138000
     42 H13         17.3190    -6.8810     8.2240 h1         1 WQK       0.060200
     43 H14         17.3910    -5.5050     9.3610 h1         1 WQK       0.060200
     44 H15         15.1450    -6.1100     7.2960 hc         1 WQK       0.056200
     45 H16         16.1190    -4.6340     7.3800 hc         1 WQK       0.056200
     46 H17         15.2080    -4.0680     9.6230 hc         1 WQK       0.055700
     47 H18         13.7810    -4.5410     8.7000 hc         1 WQK       0.055700
     48 H19         13.7030    -6.7290     9.6690 h1         1 WQK       0.054700
     49 H20         14.0970    -6.6080    12.1230 hc         1 WQK       0.047367
     50 H21         15.1840    -5.2240    11.9120 hc         1 WQK       0.047367
     51 H22         13.4550    -5.0660    11.5630 hc         1 WQK       0.047367
     52 H23          9.8580   -11.1750     4.0510 h1         1 WQK       0.053033
     53 H24          9.6530    -9.6860     4.9970 h1         1 WQK       0.053033
     54 H25          9.8100   -11.2580     5.8180 h1         1 WQK       0.053033
     55 C            8.4270   -13.7090     9.7930 c3         1 WQK      -0.050800
     56 O           17.5490    -8.0580    10.7490 o          1 WQK      -0.603100
@<TRIPOS>BOND
     1     1     2 ar  
     2     1     3 ar  
     3     2     4 ar  
     4     2    15 1   
     5     3     5 ar  
     6     3    30 1   
     7     4    20 ar  
     8     5    16 ar  
     9     5    20 ar  
    10     6    29 2   
    11     7     9 ar  
    12     7    13 ar  
    13     7    55 1   
    14     8     9 ar  
    15     8    11 ar  
    16     8    31 1   
    17     9    15 1   
    18    10    21 1   
    19    10    22 1   
    20    10    25 1   
    21    11    12 ar  
    22    11    32 1   
    23    12    13 ar  
    24    12    29 1   
    25    13    33 1   
    26    14    27 1   
    27    14    29 1   
    28    14    34 1   
    29    15    35 1   
    30    16    17 ar  
    31    16    39 1   
    32    17    18 ar  
    33    17    40 1   
    34    18    19 ar  
    35    18    21 1   
    36    19    20 ar  
    37    19    41 1   
    38    21    56 2   
    39    22    23 1   
    40    22    42 1   
    41    22    43 1   
    42    23    24 1   
    43    23    44 1   
    44    23    45 1   
    45    24    25 1   
    46    24    46 1   
    47    24    47 1   
    48    25    26 1   
    49    25    48 1   
    50    26    49 1   
    51    26    50 1   
    52    26    51 1   
    53    27    52 1   
    54    27    53 1   
    55    27    54 1   
    56    28    29 2   
    57    36    55 1   
    58    37    55 1   
    59    38    55 1   
@<TRIPOS>SUBSTRUCTURE
     1 WQK         1 TEMP              0 ****  ****    0 ROOT
