@<TRIPOS>MOLECULE
WQL
   46    47     1     0     0
SMALL
No Charge or Current Charge


@<TRIPOS>ATOM
      1 C10          4.3670     7.6430    14.3740 c2         1 WQL      -0.244200
      2 C11          7.9410     7.9710    17.2100 c3         1 WQL      -0.097100
      3 C13          3.2920     7.1580    19.3350 c3         1 WQL       0.160300
      4 C15          4.0110     6.9640    13.2730 c2         1 WQL      -0.292000
      5 C16          4.1920     7.1480    20.5650 ca         1 WQL      -0.161300
      6 C18          4.9710     8.2760    20.8860 ca         1 WQL      -0.052000
      7 C19          4.2740     5.9970    21.3710 ca         1 WQL      -0.052000
      8 C20          5.8240     8.2560    22.0030 ca         1 WQL      -0.177000
      9 C21          5.1260     5.9790    22.4890 ca         1 WQL      -0.177000
     10 C22          5.9040     7.1020    22.8110 ca         1 WQL       0.147100
     11 C24          7.5630     8.1150    24.3310 c3         1 WQL       0.148900
     12 C1           5.7500     6.7210    16.3610 c6         1 WQL      -0.202000
     13 C2           4.8160     7.3810    17.3970 c          1 WQL       0.588000
     14 C3           5.3020     5.2970    15.9980 c          1 WQL       0.588000
     15 C4           5.7300     7.5780    15.0410 c3         1 WQL      -0.024200
     16 C5           7.2220     6.6180    16.9530 c3         1 WQL      -0.043700
     17 N6           3.9700     6.5620    18.1550 n          1 WQL      -0.384400
     18 O7           4.8190     8.5960    17.5530 o          1 WQL      -0.512000
     19 N8           4.3360     4.7330    16.7600 ns         1 WQL      -0.473500
     20 O9           5.7870     4.6680    15.0700 o          1 WQL      -0.511000
     21 C12          7.3100     5.7510    18.2390 c3         1 WQL      -0.097100
     22 C14          3.6980     5.2330    17.8390 c          1 WQL       0.633000
     23 O17          2.9230     4.5340    18.4680 o          1 WQL      -0.544000
     24 O23          6.7230     7.0220    23.9180 os         1 WQL      -0.349100
     25 H29          3.6580     8.3240    14.8540 ha         1 WQL       0.172000
     26 H30          8.9580     7.7970    17.5830 hc         1 WQL       0.045033
     27 H31          8.0370     8.5610    16.2930 hc         1 WQL       0.045033
     28 H32          7.4140     8.5710    17.9600 hc         1 WQL       0.045033
     29 H36          2.9840     8.1880    19.1120 h1         1 WQL       0.079200
     30 H37          2.3640     6.6170    19.5620 h1         1 WQL       0.079200
     31 H38          3.0150     7.0640    12.8370 ha         1 WQL       0.167500
     32 H39          4.6980     6.2840    12.7670 ha         1 WQL       0.167500
     33 H40          4.9220     9.1700    20.2660 ha         1 WQL       0.127000
     34 H41          3.6830     5.1160    21.1310 ha         1 WQL       0.127000
     35 H42          6.4130     9.1420    22.2240 ha         1 WQL       0.124500
     36 H43          5.1860     5.0870    23.1070 ha         1 WQL       0.124500
     37 H46          8.1300     7.8420    25.2290 h1         1 WQL       0.042700
     38 H44          8.2810     8.3750    23.5420 h1         1 WQL       0.042700
     39 H45          6.9620     9.0030    24.5660 h1         1 WQL       0.042700
     40 H26          6.0600     8.6060    15.2330 hc         1 WQL       0.073200
     41 H25          6.4640     7.1750    14.3300 hc         1 WQL       0.073200
     42 H27          7.8400     6.1030    16.2040 hc         1 WQL       0.067700
     43 H28          4.0890     3.7860    16.5170 hn         1 WQL       0.347500
     44 H34          8.3530     5.6470    18.5630 hc         1 WQL       0.045033
     45 H33          6.7500     6.2060    19.0650 hc         1 WQL       0.045033
     46 H35          6.9210     4.7400    18.0740 hc         1 WQL       0.045033
@<TRIPOS>BOND
     1     1     4 2   
     2     1    15 1   
     3     1    25 1   
     4     2    16 1   
     5     2    26 1   
     6     2    27 1   
     7     2    28 1   
     8     3     5 1   
     9     3    17 1   
    10     3    29 1   
    11     3    30 1   
    12     4    31 1   
    13     4    32 1   
    14     5     6 ar  
    15     5     7 ar  
    16     6     8 ar  
    17     6    33 1   
    18     7     9 ar  
    19     7    34 1   
    20     8    10 ar  
    21     8    35 1   
    22     9    10 ar  
    23     9    36 1   
    24    10    24 1   
    25    11    24 1   
    26    11    37 1   
    27    11    38 1   
    28    11    39 1   
    29    12    13 1   
    30    12    14 1   
    31    12    15 1   
    32    12    16 1   
    33    13    17 1   
    34    13    18 2   
    35    14    19 1   
    36    14    20 2   
    37    15    40 1   
    38    15    41 1   
    39    16    21 1   
    40    16    42 1   
    41    17    22 1   
    42    19    22 1   
    43    19    43 1   
    44    21    44 1   
    45    21    45 1   
    46    21    46 1   
    47    22    23 2   
@<TRIPOS>SUBSTRUCTURE
     1 WQL         1 TEMP              0 ****  ****    0 ROOT
