@<TRIPOS>MOLECULE
WQL
   46    47     1     0     0
SMALL
abcg2


@<TRIPOS>ATOM
      1 C10          4.3500     7.6010    14.4430 c2         1 WQL      -0.244200
      2 C11          7.8940     7.9240    17.1790 c3         1 WQL      -0.097100
      3 C13          3.3300     7.1770    19.3410 c3         1 WQL       0.160300
      4 C15          4.0590     7.1430    13.2310 c2         1 WQL      -0.292000
      5 C16          4.2110     7.1740    20.5620 ca         1 WQL      -0.161300
      6 C18          4.9760     8.2860    20.8990 ca         1 WQL      -0.052000
      7 C19          4.3050     6.0360    21.3700 ca         1 WQL      -0.052000
      8 C20          5.8210     8.2800    22.0060 ca         1 WQL      -0.177000
      9 C21          5.1400     6.0120    22.4730 ca         1 WQL      -0.177000
     10 C22          5.9060     7.1360    22.7980 ca         1 WQL       0.147100
     11 C24          7.5030     8.1420    24.2690 c3         1 WQL       0.148900
     12 C1           5.7390     6.6910    16.3680 c6         1 WQL      -0.202000
     13 C2           4.8540     7.3520    17.4140 c          1 WQL       0.588000
     14 C3           5.3280     5.2740    16.0100 c          1 WQL       0.588000
     15 C4           5.7100     7.5410    15.0720 c3         1 WQL      -0.024200
     16 C5           7.2110     6.5790    16.9420 c3         1 WQL      -0.043700
     17 N6           4.0090     6.5580    18.1760 n          1 WQL      -0.384400
     18 O7           4.9190     8.5470    17.6190 o          1 WQL      -0.512000
     19 N8           4.3780     4.6860    16.8020 ns         1 WQL      -0.473500
     20 O9           5.8320     4.6610    15.0900 o          1 WQL      -0.511000
     21 C12          7.2730     5.7270    18.2140 c3         1 WQL      -0.097100
     22 C14          3.7500     5.2240    17.9080 c          1 WQL       0.633000
     23 O17          3.0000     4.5480    18.5840 o          1 WQL      -0.544000
     24 O23          6.6950     7.0240    23.9000 os         1 WQL      -0.349100
     25 H29          3.5650     8.0580    15.0400 ha         1 WQL       0.172000
     26 H30          8.9180     7.7350    17.5040 hc         1 WQL       0.045033
     27 H31          7.9390     8.5340    16.2780 hc         1 WQL       0.045033
     28 H32          7.3930     8.4960    17.9590 hc         1 WQL       0.045033
     29 H36          3.0700     8.1900    19.0500 h1         1 WQL       0.079200
     30 H37          2.4210     6.6100    19.5090 h1         1 WQL       0.079200
     31 H38          3.0580     7.2200    12.8230 ha         1 WQL       0.167500
     32 H39          4.8140     6.6790    12.6060 ha         1 WQL       0.167500
     33 H40          4.9180     9.1760    20.2850 ha         1 WQL       0.127000
     34 H41          3.7190     5.1590    21.1280 ha         1 WQL       0.127000
     35 H42          6.3980     9.1630    22.2370 ha         1 WQL       0.124500
     36 H43          5.2090     5.1320    23.1000 ha         1 WQL       0.124500
     37 H46          8.0440     7.8370    25.1610 h1         1 WQL       0.042700
     38 H44          8.2130     8.3910    23.4760 h1         1 WQL       0.042700
     39 H45          6.8860     9.0150    24.4940 h1         1 WQL       0.042700
     40 H26          6.0310     8.5480    15.3360 hc         1 WQL       0.073200
     41 H25          6.4350     7.1230    14.3760 hc         1 WQL       0.073200
     42 H27          7.7530     6.0570    16.1510 hc         1 WQL       0.067700
     43 H28          4.1440     3.7200    16.6050 hn         1 WQL       0.347500
     44 H34          8.3140     5.6020    18.5130 hc         1 WQL       0.045033
     45 H33          6.7490     6.2080    19.0440 hc         1 WQL       0.045033
     46 H35          6.8510     4.7310    18.0750 hc         1 WQL       0.045033
@<TRIPOS>BOND
     1     1     4 2   
     2     1    15 1   
     3     1    25 1   
     4     2    16 1   
     5     2    26 1   
     6     2    27 1   
     7     2    28 1   
     8     3     5 1   
     9     3    17 1   
    10     3    29 1   
    11     3    30 1   
    12     4    31 1   
    13     4    32 1   
    14     5     6 ar  
    15     5     7 ar  
    16     6     8 ar  
    17     6    33 1   
    18     7     9 ar  
    19     7    34 1   
    20     8    10 ar  
    21     8    35 1   
    22     9    10 ar  
    23     9    36 1   
    24    10    24 1   
    25    11    24 1   
    26    11    37 1   
    27    11    38 1   
    28    11    39 1   
    29    12    13 1   
    30    12    14 1   
    31    12    15 1   
    32    12    16 1   
    33    13    17 1   
    34    13    18 2   
    35    14    19 1   
    36    14    20 2   
    37    15    40 1   
    38    15    41 1   
    39    16    21 1   
    40    16    42 1   
    41    17    22 1   
    42    19    22 1   
    43    19    43 1   
    44    21    44 1   
    45    21    45 1   
    46    21    46 1   
    47    22    23 2   
@<TRIPOS>SUBSTRUCTURE
     1 WQL         1 TEMP              0 ****  ****    0 ROOT
