@<TRIPOS>MOLECULE
WQM
   19    19     1     0     0
SMALL
No Charge or Current Charge


@<TRIPOS>ATOM
      1 N1          -0.6130    15.6830     0.2030 ns         1 WQM      -0.500900
      2 C4          -3.6610    15.2990    -1.5080 c2         1 WQM      -0.161200
      3 C5          -4.9420    14.8850    -1.5530 ce         1 WQM      -0.276200
      4 C6          -4.0000    15.4810     0.9780 c2         1 WQM       0.500200
      5 C7          -5.8160    14.7640    -0.3520 c          1 WQM       0.684700
      6 C1           0.7210    15.1400     0.4730 c3         1 WQM       0.092300
      7 C2          -1.7560    14.9210     0.1180 c          1 WQM       0.606100
      8 C3          -3.0440    15.6860    -0.1770 c6         1 WQM      -0.244800
      9 N2          -5.2380    15.0880     0.8800 ne         1 WQM      -0.614100
     10 O2          -1.7420    13.7080     0.2610 o          1 WQM      -0.573100
     11 H1          -0.7120    16.6810     0.0580 hn         1 WQM       0.318500
     12 H2          -3.0430    15.3750    -2.4080 ha         1 WQM       0.190000
     13 H3          -5.4130    14.6090    -2.4950 ha         1 WQM       0.211000
     14 H4          -3.6200    15.7140     1.9690 h4         1 WQM       0.026800
     15 H5           1.4530    15.9580     0.4890 h1         1 WQM       0.045700
     16 H6           0.7240    14.6320     1.4460 h1         1 WQM       0.045700
     17 H7           0.9950    14.4250    -0.3130 h1         1 WQM       0.045700
     18 H8          -2.8010    16.7560    -0.2190 hc         1 WQM       0.082700
     19 O1          -6.9740    14.3960    -0.4550 o          1 WQM      -0.478100
@<TRIPOS>BOND
     1     1     6 1   
     2     1     7 1   
     3     1    11 1   
     4     2     3 2   
     5     2     8 1   
     6     2    12 1   
     7     3     5 1   
     8     3    13 1   
     9     4     8 1   
    10     4     9 2   
    11     4    14 1   
    12     5     9 1   
    13     5    19 2   
    14     6    15 1   
    15     6    16 1   
    16     6    17 1   
    17     7     8 1   
    18     7    10 2   
    19     8    18 1   
@<TRIPOS>SUBSTRUCTURE
     1 WQM         1 TEMP              0 ****  ****    0 ROOT
