@<TRIPOS>MOLECULE
WQM
   19    19     1     0     0
SMALL
abcg2


@<TRIPOS>ATOM
      1 N1          -0.6830    15.6490     0.1910 ns         1 WQM      -0.500900
      2 C4          -3.6660    15.5400    -1.4930 c2         1 WQM      -0.161200
      3 C5          -4.8110    14.8640    -1.5440 ce         1 WQM      -0.276200
      4 C6          -4.0270    15.7330     0.9440 c2         1 WQM       0.500200
      5 C7          -5.5050    14.4830    -0.3080 c          1 WQM       0.684700
      6 C1           0.5520    14.9410     0.4450 c3         1 WQM       0.092300
      7 C2          -1.8520    15.0210     0.0940 c          1 WQM       0.606100
      8 C3          -3.0720    15.9260    -0.1870 c6         1 WQM      -0.244800
      9 N2          -5.1160    15.0820     0.9050 ne         1 WQM      -0.614100
     10 O2          -2.0020    13.8180     0.2110 o          1 WQM      -0.573100
     11 H1          -0.6490    16.6490     0.0860 hn         1 WQM       0.318500
     12 H2          -3.1230    15.7990    -2.3930 ha         1 WQM       0.190000
     13 H3          -5.2470    14.5500    -2.4830 ha         1 WQM       0.211000
     14 H4          -3.7460    16.1870     1.8920 h4         1 WQM       0.026800
     15 H5           1.3650    15.6600     0.4390 h1         1 WQM       0.045700
     16 H6           0.5350    14.4450     1.4160 h1         1 WQM       0.045700
     17 H7           0.7450    14.1930    -0.3230 h1         1 WQM       0.045700
     18 H8          -2.7620    16.9750    -0.2000 hc         1 WQM       0.082700
     19 O1          -6.4180    13.6860    -0.2990 o          1 WQM      -0.478100
@<TRIPOS>BOND
     1     1     6 1   
     2     1     7 1   
     3     1    11 1   
     4     2     3 2   
     5     2     8 1   
     6     2    12 1   
     7     3     5 1   
     8     3    13 1   
     9     4     8 1   
    10     4     9 2   
    11     4    14 1   
    12     5     9 1   
    13     5    19 2   
    14     6    15 1   
    15     6    16 1   
    16     6    17 1   
    17     7     8 1   
    18     7    10 2   
    19     8    18 1   
@<TRIPOS>SUBSTRUCTURE
     1 WQM         1 TEMP              0 ****  ****    0 ROOT
