@<TRIPOS>MOLECULE
WQO
   37    39     1     0     0
SMALL
No Charge or Current Charge


@<TRIPOS>ATOM
      1 C18        -46.0380   -25.7190    -0.2010 ca         1 WQO      -0.135000
      2 C16        -45.4110   -27.8340     0.8120 ca         1 WQO      -0.101300
      3 C17        -46.4060   -26.8950     0.4810 ca         1 WQO      -0.088000
      4 C15        -44.0900   -27.6080     0.4640 ca         1 WQO      -0.065300
      5 C14        -43.1860   -28.7350     0.8870 c5         1 WQO      -0.021100
      6 C11        -43.8380   -30.9450     2.0450 c          1 WQO       0.717000
      7 C10        -44.0980   -29.4270     1.9760 c5         1 WQO      -0.190700
      8 C20        -43.7080   -26.4430    -0.2190 ca         1 WQO      -0.116000
      9 C19        -44.6910   -25.4930    -0.5510 ca         1 WQO      -0.123000
     10 C02        -49.9500   -28.5500     6.2420 ca         1 WQO       0.374000
     11 C03        -50.6210   -28.8940     5.0710 ca         1 WQO      -0.271000
     12 C04        -49.9040   -29.0990     3.8880 ca         1 WQO       0.252100
     13 C06        -48.5000   -28.9620     3.8610 ca         1 WQO      -0.295600
     14 C07        -47.7200   -29.1800     2.5890 c          1 WQO       0.633700
     15 C09        -45.5830   -29.1600     1.5270 c5         1 WQO       0.223600
     16 C22        -47.8330   -28.6120     5.0580 ca         1 WQO       0.043000
     17 C23        -48.5630   -28.4090     6.2400 ca         1 WQO      -0.254000
     18 O08        -46.3650   -29.0240     2.7410 os         1 WQO      -0.420100
     19 O12        -43.4450   -31.4240     3.0980 o          1 WQO      -0.724500
     20 O13        -44.0260   -31.6350     1.0530 o          1 WQO      -0.724500
     21 O21        -48.2690   -29.4780     1.5340 o          1 WQO      -0.553000
     22 H181       -46.7960   -24.9840    -0.4610 ha         1 WQO       0.095000
     23 H171       -47.4460   -27.0660     0.7430 ha         1 WQO       0.114000
     24 H142       -42.9600   -29.3950     0.0410 hc         1 WQO       0.058200
     25 H141       -42.2320   -28.3910     1.3040 hc         1 WQO       0.058200
     26 H101       -43.9010   -28.9800     2.9580 hc         1 WQO       0.053700
     27 H201       -42.6670   -26.2780    -0.4900 ha         1 WQO       0.103000
     28 H191       -44.4120   -24.5840    -1.0800 ha         1 WQO       0.093000
     29 H031       -51.7000   -29.0050     5.0720 ha         1 WQO       0.120000
     30 H091       -45.9710   -29.9480     0.8630 h1         1 WQO       0.116700
     31 H221       -46.7510   -28.4940     5.0880 ha         1 WQO       0.140000
     32 H231       -48.0390   -28.1410     7.1530 ha         1 WQO       0.110000
     33 H012       -50.1840   -27.9180     8.1860 hn         1 WQO       0.464500
     34 H011       -51.6650   -28.2660     7.3480 hn         1 WQO       0.464500
     35 H051       -49.9220   -29.5330     2.0490 ho         1 WQO       0.521000
     36 N01        -50.6510   -28.3500     7.3910 nv         1 WQO      -1.109000
     37 O05        -50.5980   -29.4330     2.7680 oh         1 WQO      -0.566100
@<TRIPOS>BOND
     1     1     3 ar  
     2     1     9 ar  
     3     1    22 1   
     4     2     3 ar  
     5     2     4 ar  
     6     2    15 1   
     7     3    23 1   
     8     4     5 1   
     9     4     8 ar  
    10     5     7 1   
    11     5    24 1   
    12     5    25 1   
    13     6     7 1   
    14     6    19 1   
    15     6    20 1   
    16     7    15 1   
    17     7    26 1   
    18     8     9 ar  
    19     8    27 1   
    20     9    28 1   
    21    10    11 ar  
    22    10    17 ar  
    23    10    36 1   
    24    11    12 ar  
    25    11    29 1   
    26    12    13 ar  
    27    12    37 1   
    28    13    14 1   
    29    13    16 ar  
    30    14    18 1   
    31    14    21 2   
    32    15    18 1   
    33    15    30 1   
    34    16    17 ar  
    35    16    31 1   
    36    17    32 1   
    37    33    36 1   
    38    34    36 1   
    39    35    37 1   
@<TRIPOS>SUBSTRUCTURE
     1 WQO         1 TEMP              0 ****  ****    0 ROOT
