@<TRIPOS>MOLECULE
WQO
   37    39     1     0     0
SMALL
abcg2


@<TRIPOS>ATOM
      1 C18        -45.9200   -25.6510    -0.2790 ca         1 WQO      -0.135000
      2 C16        -45.4050   -27.7270     0.7950 ca         1 WQO      -0.101300
      3 C17        -46.3420   -26.7630     0.4490 ca         1 WQO      -0.088000
      4 C15        -44.0670   -27.5990     0.4220 ca         1 WQO      -0.065300
      5 C14        -43.2670   -28.7790     0.9130 c5         1 WQO      -0.021100
      6 C11        -43.9490   -30.9250     2.1600 c          1 WQO       0.717000
      7 C10        -44.1860   -29.4120     1.9910 c5         1 WQO      -0.190700
      8 C20        -43.6500   -26.4960    -0.3110 ca         1 WQO      -0.116000
      9 C19        -44.5840   -25.5210    -0.6580 ca         1 WQO      -0.123000
     10 C02        -49.9520   -28.6380     6.2550 ca         1 WQO       0.374000
     11 C03        -50.5930   -29.0140     5.0690 ca         1 WQO      -0.271000
     12 C04        -49.8730   -29.1660     3.8930 ca         1 WQO       0.252100
     13 C06        -48.4730   -28.9420     3.8710 ca         1 WQO      -0.295600
     14 C07        -47.7380   -29.1010     2.6270 c          1 WQO       0.633700
     15 C09        -45.5960   -29.0130     1.5530 c5         1 WQO       0.223600
     16 C22        -47.8490   -28.5630     5.0740 ca         1 WQO       0.043000
     17 C23        -48.5560   -28.4110     6.2400 ca         1 WQO      -0.254000
     18 O08        -46.4270   -28.8600     2.7320 os         1 WQO      -0.420100
     19 O12        -43.0720   -31.2580     2.9980 o          1 WQO      -0.724500
     20 O13        -44.6140   -31.7030     1.4300 o          1 WQO      -0.724500
     21 O21        -48.2640   -29.4250     1.5580 o          1 WQO      -0.553000
     22 H181       -46.6330   -24.8840    -0.5510 ha         1 WQO       0.095000
     23 H171       -47.3790   -26.8650     0.7400 ha         1 WQO       0.114000
     24 H142       -43.0990   -29.4880     0.0950 hc         1 WQO       0.058200
     25 H141       -42.2900   -28.5030     1.3100 hc         1 WQO       0.058200
     26 H101       -43.9810   -28.9170     2.9420 hc         1 WQO       0.053700
     27 H201       -42.6120   -26.3870    -0.6020 ha         1 WQO       0.103000
     28 H191       -44.2690   -24.6510    -1.2210 ha         1 WQO       0.093000
     29 H031       -51.6610   -29.1910     5.0560 ha         1 WQO       0.120000
     30 H091       -46.0360   -29.7900     0.9300 h1         1 WQO       0.116700
     31 H221       -46.7830   -28.3850     5.0700 ha         1 WQO       0.140000
     32 H231       -48.0560   -28.1160     7.1540 ha         1 WQO       0.110000
     33 H012       -50.2250   -28.0420     8.1910 hn         1 WQO       0.464500
     34 H011       -51.6570   -28.4680     7.3770 hn         1 WQO       0.464500
     35 H051       -49.8800   -29.5800     2.0530 ho         1 WQO       0.521000
     36 N01        -50.6530   -28.5310     7.4220 nv         1 WQO      -1.109000
     37 O05        -50.5470   -29.5270     2.7810 oh         1 WQO      -0.566100
@<TRIPOS>BOND
     1     1     3 ar  
     2     1     9 ar  
     3     1    22 1   
     4     2     3 ar  
     5     2     4 ar  
     6     2    15 1   
     7     3    23 1   
     8     4     5 1   
     9     4     8 ar  
    10     5     7 1   
    11     5    24 1   
    12     5    25 1   
    13     6     7 1   
    14     6    19 1   
    15     6    20 1   
    16     7    15 1   
    17     7    26 1   
    18     8     9 ar  
    19     8    27 1   
    20     9    28 1   
    21    10    11 ar  
    22    10    17 ar  
    23    10    36 1   
    24    11    12 ar  
    25    11    29 1   
    26    12    13 ar  
    27    12    37 1   
    28    13    14 1   
    29    13    16 ar  
    30    14    18 1   
    31    14    21 2   
    32    15    18 1   
    33    15    30 1   
    34    16    17 ar  
    35    16    31 1   
    36    17    32 1   
    37    33    36 1   
    38    34    36 1   
    39    35    37 1   
@<TRIPOS>SUBSTRUCTURE
     1 WQO         1 TEMP              0 ****  ****    0 ROOT
