@<TRIPOS>MOLECULE
WQQ
   60    63     1     0     0
SMALL
abcg2


@<TRIPOS>ATOM
      1 C36          4.9680     3.1350    -2.3110 c3         1 WQQ      -0.140400
      2 C31          5.4700     2.5870    -1.0310 cc         1 WQQ       0.210300
      3 O32          6.6810     2.9550    -0.6130 os         1 WQQ      -0.069700
      4 N33          6.9630     2.3580     0.5850 nc         1 WQQ      -0.360300
      5 C34          5.9260     1.6340     0.8860 cd         1 WQQ       0.290300
      6 C35          5.8640     0.8370     2.1380 c3         1 WQQ      -0.134400
      7 C16          4.9250     1.7360    -0.1240 cd         1 WQQ      -0.191800
      8 C1           3.5860     1.1390    -0.1320 cd         1 WQQ      -0.127200
      9 C6           2.4600     1.9640     0.0460 cd         1 WQQ      -0.008000
     10 C2           3.3810    -0.2090    -0.3000 cc         1 WQQ       0.126400
     11 C15          4.4890    -1.1740    -0.5490 c3         1 WQQ      -0.077900
     12 N3           2.1070    -0.6960    -0.2520 n          1 WQQ      -0.193200
     13 C7           1.8800    -2.1040    -0.4030 ca         1 WQQ       0.024600
     14 C12          1.9290    -2.9130     0.7210 ca         1 WQQ      -0.088000
     15 C11          1.7190    -4.2740     0.5630 ca         1 WQQ       0.123000
     16 CL           1.7810    -5.3000     1.9550 cl         1 WQQ      -0.187000
     17 C10          1.4630    -4.8250    -0.6820 ca         1 WQQ      -0.090000
     18 C9           1.4140    -3.9910    -1.7900 ca         1 WQQ      -0.094000
     19 C8           1.6200    -2.6270    -1.6580 ca         1 WQQ      -0.090000
     20 C4           0.9570     0.0730    -0.0550 c          1 WQQ       0.572200
     21 O14         -0.1300    -0.4980    -0.0110 o          1 WQQ      -0.560000
     22 C5           1.1810     1.4860     0.0790 cc         1 WQQ      -0.311400
     23 C17          0.0750     2.4720     0.2730 c          1 WQQ       0.625300
     24 O19          0.3160     3.6720     0.3570 o          1 WQQ      -0.629100
     25 N18         -1.1680     1.9810     0.3520 ns         1 WQQ      -0.503900
     26 C20         -2.3110     2.8370     0.5880 c3         1 WQQ       0.150300
     27 C21         -3.5790     2.0530     0.3980 ca         1 WQQ      -0.053300
     28 C22         -4.3160     1.6220     1.4960 ca         1 WQQ      -0.112500
     29 C23         -5.4820     0.8910     1.3260 ca         1 WQQ      -0.019500
     30 C24         -5.9050     0.5930     0.0400 ca         1 WQQ      -0.261500
     31 S27         -7.4100    -0.3180    -0.1910 sy         1 WQQ       1.057500
     32 C30         -8.6590     0.9450    -0.2590 c3         1 WQQ      -0.337100
     33 O29         -7.3510    -0.9810    -1.4920 o          1 WQQ      -0.523000
     34 O28         -7.6430    -1.1300     1.0020 o          1 WQQ      -0.523000
     35 C25         -5.1810     1.0040    -1.0720 ca         1 WQQ      -0.019500
     36 C26         -4.0190     1.7320    -0.8840 ca         1 WQQ      -0.112500
     37 H361         5.7060     3.0220    -3.1050 hc         1 WQQ       0.066367
     38 H362         4.0620     2.6110    -2.6060 hc         1 WQQ       0.066367
     39 H363         4.7330     4.1970    -2.2210 hc         1 WQQ       0.066367
     40 H351         4.9250     1.0180     2.6610 hc         1 WQQ       0.057033
     41 H352         5.9190    -0.2310     1.9270 hc         1 WQQ       0.057033
     42 H353         6.6870     1.0890     2.8050 hc         1 WQQ       0.057033
     43 H6           2.6160     3.0280     0.1680 ha         1 WQQ       0.219000
     44 H151         4.5940    -1.8890     0.2690 hc         1 WQQ       0.068033
     45 H152         4.3180    -1.7500    -1.4590 hc         1 WQQ       0.068033
     46 H153         5.4310    -0.6450    -0.6620 hc         1 WQQ       0.068033
     47 H12          2.1290    -2.4900     1.6960 ha         1 WQQ       0.141000
     48 H8           1.5840    -1.9760    -2.5220 ha         1 WQQ       0.131000
     49 H10          1.3040    -5.8890    -0.7900 ha         1 WQQ       0.136000
     50 H9           1.2120    -4.4130    -2.7650 ha         1 WQQ       0.127000
     51 H18         -1.2830     0.9760     0.3170 hn         1 WQQ       0.358500
     52 H201        -2.2790     3.2580     1.5970 h1         1 WQQ       0.058700
     53 H202        -2.2900     3.6780    -0.1080 h1         1 WQQ       0.058700
     54 H22         -3.9780     1.8570     2.4980 ha         1 WQQ       0.124000
     55 H26         -3.4510     2.0590    -1.7470 ha         1 WQQ       0.124000
     56 H23         -6.0420     0.5630     2.1910 ha         1 WQQ       0.138000
     57 H25         -5.5140     0.7670    -2.0730 ha         1 WQQ       0.138000
     58 H301        -8.4600     1.6060    -1.0990 h1         1 WQQ       0.102700
     59 H302        -9.6190     0.4460    -0.3940 h1         1 WQQ       0.102700
     60 H303        -8.6570     1.5040     0.6740 h1         1 WQQ       0.102700
@<TRIPOS>BOND
     1     1     2 1   
     2     1    37 1   
     3     1    38 1   
     4     1    39 1   
     5     2     3 1   
     6     2     7 2   
     7     3     4 1   
     8     4     5 2   
     9     5     6 1   
    10     5     7 1   
    11     6    40 1   
    12     6    41 1   
    13     6    42 1   
    14     7     8 1   
    15     8     9 1   
    16     8    10 2   
    17     9    22 2   
    18     9    43 1   
    19    10    11 1   
    20    10    12 1   
    21    11    44 1   
    22    11    45 1   
    23    11    46 1   
    24    12    13 1   
    25    12    20 1   
    26    13    14 ar  
    27    13    19 ar  
    28    14    15 ar  
    29    14    47 1   
    30    15    16 1   
    31    15    17 ar  
    32    17    18 ar  
    33    17    49 1   
    34    18    19 ar  
    35    18    50 1   
    36    19    48 1   
    37    20    21 2   
    38    20    22 1   
    39    22    23 1   
    40    23    24 2   
    41    23    25 1   
    42    25    26 1   
    43    25    51 1   
    44    26    27 1   
    45    26    52 1   
    46    26    53 1   
    47    27    28 ar  
    48    27    36 ar  
    49    28    29 ar  
    50    28    54 1   
    51    29    30 ar  
    52    29    56 1   
    53    30    31 1   
    54    30    35 ar  
    55    31    32 1   
    56    31    33 2   
    57    31    34 2   
    58    32    58 1   
    59    32    59 1   
    60    32    60 1   
    61    35    36 ar  
    62    35    57 1   
    63    36    55 1   
@<TRIPOS>SUBSTRUCTURE
     1 WQQ         1 TEMP              0 ****  ****    0 ROOT
