@<TRIPOS>MOLECULE
WQQ
   60    63     1     0     0
SMALL
No Charge or Current Charge


@<TRIPOS>ATOM
      1 C36          4.6800     4.0200    -1.1830 c3         1 WQQ      -0.140400
      2 C31          5.3660     2.9030    -0.4420 cc         1 WQQ       0.210300
      3 O32          6.7170     3.0250    -0.2250 os         1 WQQ      -0.069700
      4 N33          7.2020     1.8240     0.4020 nc         1 WQQ      -0.360300
      5 C34          6.1420     1.0430     0.5000 cd         1 WQQ       0.290300
      6 C35          6.2740    -0.2340     1.2860 c3         1 WQQ      -0.134400
      7 C16          4.9720     1.6530    -0.0340 cd         1 WQQ      -0.191800
      8 C1           3.6030     1.1440    -0.1070 cd         1 WQQ      -0.127200
      9 C6           2.4960     2.0560     0.0100 cd         1 WQQ      -0.008000
     10 C2           3.3390    -0.2000    -0.3680 cc         1 WQQ       0.126400
     11 C15          4.3590    -1.1320    -1.0080 c3         1 WQQ      -0.077900
     12 N3           2.0310    -0.7080    -0.2630 n          1 WQQ      -0.193200
     13 C7           1.8510    -2.1240    -0.0100 ca         1 WQQ       0.024600
     14 C12          2.6360    -2.7890     0.9570 ca         1 WQQ      -0.088000
     15 C11          2.5110    -4.1740     1.1490 ca         1 WQQ       0.123000
     16 Cl           3.4850    -4.9780     2.3740 cl         1 WQQ      -0.187000
     17 C10          1.6160    -4.9190     0.3670 ca         1 WQQ      -0.090000
     18 C9           0.8480    -4.2750    -0.6170 ca         1 WQQ      -0.094000
     19 C8           0.9720    -2.8870    -0.8100 ca         1 WQQ      -0.090000
     20 C4           0.9060     0.1480    -0.1780 c          1 WQQ       0.572200
     21 O14         -0.2290    -0.3110    -0.1490 o          1 WQQ      -0.560000
     22 C5           1.1930     1.5980    -0.0730 cc         1 WQQ      -0.311400
     23 C17          0.1120     2.6210     0.0140 c          1 WQQ       0.625300
     24 O19          0.3370     3.8170     0.1260 o          1 WQQ      -0.629100
     25 N18         -1.1780     2.1670    -0.0450 ns         1 WQQ      -0.503900
     26 C20         -2.3670     3.0110     0.0200 c3         1 WQQ       0.150300
     27 C21         -3.6360     2.1780    -0.0730 ca         1 WQQ      -0.053300
     28 C22         -4.2320     1.6590     1.0910 ca         1 WQQ      -0.112500
     29 C23         -5.4010     0.8830     1.0080 ca         1 WQQ      -0.019500
     30 C24         -5.9830     0.6150    -0.2480 ca         1 WQQ      -0.261500
     31 S27         -7.4910    -0.3730    -0.3590 sy         1 WQQ       1.057500
     32 C30         -8.7900     0.8560    -0.2390 c3         1 WQQ      -0.337100
     33 O29         -7.5840    -0.9510    -1.7060 o          1 WQQ      -0.523000
     34 O28         -7.5980    -1.2140     0.8400 o          1 WQQ      -0.523000
     35 C25         -5.3870     1.1330    -1.4170 ca         1 WQQ      -0.019500
     36 C26         -4.2180     1.9090    -1.3260 ca         1 WQQ      -0.112500
     37 H361         5.3990     4.5750    -1.7970 hc         1 WQQ       0.066367
     38 H362         3.9050     3.6340    -1.8550 hc         1 WQQ       0.066367
     39 H363         4.2220     4.7320    -0.4860 hc         1 WQQ       0.066367
     40 H351         5.3030    -0.5790     1.6600 hc         1 WQQ       0.057033
     41 H352         6.7260    -1.0280     0.6810 hc         1 WQQ       0.057033
     42 H353         6.9160    -0.0870     2.1630 hc         1 WQQ       0.057033
     43 H6           2.6810     3.1090     0.1960 ha         1 WQQ       0.219000
     44 H151         4.7780    -1.8540    -0.3020 hc         1 WQQ       0.068033
     45 H152         3.8950    -1.7090    -1.8170 hc         1 WQQ       0.068033
     46 H153         5.1860    -0.5830    -1.4730 hc         1 WQQ       0.068033
     47 H12          3.3280    -2.2290     1.5800 ha         1 WQQ       0.141000
     48 H8           0.3900    -2.4070    -1.5930 ha         1 WQQ       0.131000
     49 H10          1.5240    -5.9910     0.5180 ha         1 WQQ       0.136000
     50 H9           0.1620    -4.8510    -1.2350 ha         1 WQQ       0.127000
     51 H18         -1.2950     1.1620    -0.1260 hn         1 WQQ       0.358500
     52 H201        -2.3580     3.5700     0.9650 h1         1 WQQ       0.058700
     53 H202        -2.3360     3.7370    -0.8040 h1         1 WQQ       0.058700
     54 H22         -3.7890     1.8570     2.0650 ha         1 WQQ       0.124000
     55 H26         -3.7640     2.3010    -2.2340 ha         1 WQQ       0.124000
     56 H23         -5.8480     0.4940     1.9220 ha         1 WQQ       0.138000
     57 H25         -5.8230     0.9400    -2.3960 ha         1 WQQ       0.138000
     58 H301        -8.6740     1.5580    -1.0710 h1         1 WQQ       0.102700
     59 H302        -9.7540     0.3400    -0.2970 h1         1 WQQ       0.102700
     60 H303        -8.6840     1.3720     0.7210 h1         1 WQQ       0.102700
@<TRIPOS>BOND
     1     1     2 1   
     2     1    37 1   
     3     1    38 1   
     4     1    39 1   
     5     2     3 1   
     6     2     7 2   
     7     3     4 1   
     8     4     5 2   
     9     5     6 1   
    10     5     7 1   
    11     6    40 1   
    12     6    41 1   
    13     6    42 1   
    14     7     8 1   
    15     8     9 1   
    16     8    10 2   
    17     9    22 2   
    18     9    43 1   
    19    10    11 1   
    20    10    12 1   
    21    11    44 1   
    22    11    45 1   
    23    11    46 1   
    24    12    13 1   
    25    12    20 1   
    26    13    14 ar  
    27    13    19 ar  
    28    14    15 ar  
    29    14    47 1   
    30    15    16 1   
    31    15    17 ar  
    32    17    18 ar  
    33    17    49 1   
    34    18    19 ar  
    35    18    50 1   
    36    19    48 1   
    37    20    21 2   
    38    20    22 1   
    39    22    23 1   
    40    23    24 2   
    41    23    25 1   
    42    25    26 1   
    43    25    51 1   
    44    26    27 1   
    45    26    52 1   
    46    26    53 1   
    47    27    28 ar  
    48    27    36 ar  
    49    28    29 ar  
    50    28    54 1   
    51    29    30 ar  
    52    29    56 1   
    53    30    31 1   
    54    30    35 ar  
    55    31    32 1   
    56    31    33 2   
    57    31    34 2   
    58    32    58 1   
    59    32    59 1   
    60    32    60 1   
    61    35    36 ar  
    62    35    57 1   
    63    36    55 1   
@<TRIPOS>SUBSTRUCTURE
     1 WQQ         1 TEMP              0 ****  ****    0 ROOT
