@<TRIPOS>MOLECULE
WQR
   80    83     1     0     0
SMALL
abcg2


@<TRIPOS>ATOM
      1 C2          42.4810   -46.4620     1.8980 c3         1 WQR      -0.081100
      2 C1          43.7370   -46.4400     2.7890 c6         1 WQR       0.006200
      3 C31         44.9310   -45.9370     1.9600 c6         1 WQR      -0.068400
      4 C30         45.3950   -46.9550     0.9310 c6         1 WQR      -0.072400
      5 C28         45.8070   -48.2540     1.5940 c6         1 WQR       0.180300
      6 O29         46.3040   -49.1050     0.5810 oh         1 WQR      -0.661000
      7 C25         44.6720   -48.8930     2.4280 c6         1 WQR      -0.064000
      8 C26         43.6030   -49.5300     1.5360 c3         1 WQR      -0.085100
      9 C27         45.2960   -50.0190     3.2700 c3         1 WQR      -0.085100
     10 C3          44.1250   -47.8120     3.4010 c6         1 WQR      -0.039700
     11 C4          43.0040   -48.3010     4.3090 c6         1 WQR      -0.070400
     12 C5          42.8270   -47.3530     5.4860 c6         1 WQR      -0.036200
     13 C6          42.9520   -45.9050     5.1130 c2         1 WQR      -0.108400
     14 C24         43.4190   -45.4710     3.9330 c2         1 WQR      -0.103400
     15 C23         43.5400   -44.0020     3.6030 c6         1 WQR      -0.040200
     16 C22         43.0450   -42.9820     4.6460 c6         1 WQR      -0.065400
     17 C10         42.0240   -43.5840     5.6050 c5         1 WQR      -0.021000
     18 C11         40.7290   -43.8710     4.8370 c3         1 WQR      -0.080100
     19 C7          42.6170   -44.8960     6.1900 c5         1 WQR      -0.127800
     20 C8          43.9830   -44.6720     6.8200 c          1 WQR       0.584900
     21 O32         44.3200   -45.0780     7.9060 o          1 WQR      -0.524100
     22 C9          41.6090   -45.2700     7.2690 c5         1 WQR      -0.061400
     23 C21         41.2260   -43.9110     7.8810 c5         1 WQR      -0.078400
     24 C12         41.7260   -42.8060     6.9100 c5         1 WQR      -0.056700
     25 C13         40.7690   -41.6060     6.8570 c3         1 WQR      -0.048700
     26 C20         41.1910   -40.5480     5.8420 c3         1 WQR      -0.087100
     27 C14         40.6650   -40.9820     8.2580 c3         1 WQR      -0.073400
     28 C15         39.5410   -39.9600     8.4630 c3         1 WQR      -0.036200
     29 C16         38.1760   -40.5750     8.4150 c2         1 WQR      -0.222200
     30 C17         37.1920   -40.4730     9.3140 c2         1 WQR      -0.116400
     31 C19         35.8780   -41.1670     9.0970 c3         1 WQR      -0.055400
     32 C18         37.2670   -39.6810    10.5850 c3         1 WQR      -0.055400
     33 H1          41.6280   -46.9060     2.4090 hc         1 WQR       0.036033
     34 H2          42.1980   -45.4440     1.6270 hc         1 WQR       0.036033
     35 H3          42.6250   -46.9990     0.9630 hc         1 WQR       0.036033
     36 H4          45.7660   -45.7090     2.6340 hc         1 WQR       0.042200
     37 H5          44.6780   -45.0040     1.4530 hc         1 WQR       0.042200
     38 H6          46.2510   -46.5480     0.3840 hc         1 WQR       0.053700
     39 H7          44.6170   -47.1370     0.1850 hc         1 WQR       0.053700
     40 H8          46.6140   -48.0100     2.3060 h1         1 WQR       0.024700
     41 H9          46.6680   -49.8960     0.9880 ho         1 WQR       0.442000
     42 H10         42.7630   -49.8900     2.1320 hc         1 WQR       0.034700
     43 H11         43.1990   -48.8580     0.7810 hc         1 WQR       0.034700
     44 H12         44.0070   -50.3940     1.0080 hc         1 WQR       0.034700
     45 H13         44.5510   -50.5560     3.8580 hc         1 WQR       0.034700
     46 H14         45.7790   -50.7730     2.6450 hc         1 WQR       0.034700
     47 H15         46.0460   -49.6290     3.9610 hc         1 WQR       0.034700
     48 H16         44.9750   -47.5840     4.0620 hc         1 WQR       0.045700
     49 H17         42.0680   -48.3770     3.7520 hc         1 WQR       0.044200
     50 H18         43.2070   -49.3000     4.6950 hc         1 WQR       0.044200
     51 H19         41.8580   -47.5340     5.9570 hc         1 WQR       0.052200
     52 H20         43.5730   -47.5820     6.2580 hc         1 WQR       0.052200
     53 H21         44.5850   -43.7770     3.3750 hc         1 WQR       0.047200
     54 H22         43.0130   -43.8250     2.6600 hc         1 WQR       0.047200
     55 H23         43.8880   -42.5700     5.2050 hc         1 WQR       0.042700
     56 H24         42.6190   -42.1350     4.1090 hc         1 WQR       0.042700
     57 H25         39.9290   -44.2480     5.4740 hc         1 WQR       0.037033
     58 H26         40.3620   -42.9580     4.3660 hc         1 WQR       0.037033
     59 H27         40.8840   -44.6040     4.0440 hc         1 WQR       0.037033
     60 H28         44.7230   -44.1740     6.1700 h4         1 WQR      -0.010800
     61 H29         40.7400   -45.7560     6.8250 hc         1 WQR       0.054700
     62 H30         42.0110   -45.9640     8.0070 hc         1 WQR       0.054700
     63 H31         41.6700   -43.7890     8.8690 hc         1 WQR       0.047700
     64 H32         40.1450   -43.8440     8.0210 hc         1 WQR       0.047700
     65 H33         42.6880   -42.4190     7.2820 hc         1 WQR       0.044700
     66 H34         39.7810   -41.9880     6.5710 hc         1 WQR       0.049700
     67 H35         40.5690   -39.6550     5.9090 hc         1 WQR       0.032033
     68 H36         42.2260   -40.2390     6.0050 hc         1 WQR       0.032033
     69 H37         41.1090   -40.9050     4.8160 hc         1 WQR       0.032033
     70 H38         40.5300   -41.7660     9.0070 hc         1 WQR       0.041200
     71 H39         41.6240   -40.5060     8.4910 hc         1 WQR       0.041200
     72 H40         39.6090   -39.1680     7.7100 hc         1 WQR       0.044200
     73 H41         39.7090   -39.4640     9.4210 hc         1 WQR       0.044200
     74 H42         37.9720   -41.1820     7.5350 ha         1 WQR       0.164000
     75 H45         35.8670   -41.7430     8.1710 hc         1 WQR       0.037867
     76 H46         35.6530   -41.8480     9.9220 hc         1 WQR       0.037867
     77 H47         35.0550   -40.4490     9.0570 hc         1 WQR       0.037867
     78 H48         37.0170   -40.3090    11.4440 hc         1 WQR       0.037867
     79 H49         38.2440   -39.2390    10.7690 hc         1 WQR       0.037867
     80 H50         36.5340   -38.8690    10.5750 hc         1 WQR       0.037867
@<TRIPOS>BOND
     1     1     2 1   
     2     1    33 1   
     3     1    34 1   
     4     1    35 1   
     5     2     3 1   
     6     2    10 1   
     7     2    14 1   
     8     3     4 1   
     9     3    36 1   
    10     3    37 1   
    11     4     5 1   
    12     4    38 1   
    13     4    39 1   
    14     5     6 1   
    15     5     7 1   
    16     5    40 1   
    17     6    41 1   
    18     7     8 1   
    19     7     9 1   
    20     7    10 1   
    21     8    42 1   
    22     8    43 1   
    23     8    44 1   
    24     9    45 1   
    25     9    46 1   
    26     9    47 1   
    27    10    11 1   
    28    10    48 1   
    29    11    12 1   
    30    11    49 1   
    31    11    50 1   
    32    12    13 1   
    33    12    51 1   
    34    12    52 1   
    35    13    14 2   
    36    13    19 1   
    37    14    15 1   
    38    15    16 1   
    39    15    53 1   
    40    15    54 1   
    41    16    17 1   
    42    16    55 1   
    43    16    56 1   
    44    17    18 1   
    45    17    19 1   
    46    17    24 1   
    47    18    57 1   
    48    18    58 1   
    49    18    59 1   
    50    19    20 1   
    51    19    22 1   
    52    20    21 2   
    53    20    60 1   
    54    22    23 1   
    55    22    61 1   
    56    22    62 1   
    57    23    24 1   
    58    23    63 1   
    59    23    64 1   
    60    24    25 1   
    61    24    65 1   
    62    25    26 1   
    63    25    27 1   
    64    25    66 1   
    65    26    67 1   
    66    26    68 1   
    67    26    69 1   
    68    27    28 1   
    69    27    70 1   
    70    27    71 1   
    71    28    29 1   
    72    28    72 1   
    73    28    73 1   
    74    29    30 2   
    75    29    74 1   
    76    30    31 1   
    77    30    32 1   
    78    31    75 1   
    79    31    76 1   
    80    31    77 1   
    81    32    78 1   
    82    32    79 1   
    83    32    80 1   
@<TRIPOS>SUBSTRUCTURE
     1 WQR         1 TEMP              0 ****  ****    0 ROOT
