@<TRIPOS>MOLECULE
WQR
   80    83     1     0     0
SMALL
No Charge or Current Charge


@<TRIPOS>ATOM
      1 C2          42.2440   -46.6100     2.0690 c3         1 WQR      -0.081100
      2 C1          43.6130   -46.4730     2.8240 c6         1 WQR       0.006200
      3 C31         44.7070   -45.9570     1.8320 c6         1 WQR      -0.068400
      4 C30         45.1460   -47.0150     0.7900 c6         1 WQR      -0.072400
      5 C28         45.7090   -48.2830     1.4750 c6         1 WQR       0.180300
      6 O29         46.1660   -49.1940     0.4660 oh         1 WQR      -0.661000
      7 C25         44.6780   -48.9600     2.4520 c6         1 WQR      -0.064000
      8 C26         43.5420   -49.7160     1.6710 c3         1 WQR      -0.085100
      9 C27         45.4330   -50.0750     3.2600 c3         1 WQR      -0.085100
     10 C3          44.1560   -47.8450     3.4610 c6         1 WQR      -0.039700
     11 C4          43.1400   -48.3360     4.5300 c6         1 WQR      -0.070400
     12 C5          42.9290   -47.2880     5.6520 c6         1 WQR      -0.036200
     13 C6          42.9670   -45.8130     5.2200 c2         1 WQR      -0.108400
     14 C24         43.3140   -45.4170     3.9490 c2         1 WQR      -0.103400
     15 C23         43.3940   -43.9200     3.5530 c6         1 WQR      -0.040200
     16 C22         42.9750   -42.8900     4.6480 c6         1 WQR      -0.065400
     17 C10         42.0040   -43.5000     5.7050 c5         1 WQR      -0.021000
     18 C11         40.6490   -43.8160     4.9670 c3         1 WQR      -0.080100
     19 C7          42.7170   -44.7510     6.3520 c5         1 WQR      -0.127800
     20 C8          44.1010   -44.4160     7.0110 c          1 WQR       0.584900
     21 O32         44.3980   -44.5250     8.1980 o          1 WQR      -0.524100
     22 C9          41.6790   -45.1620     7.4390 c5         1 WQR      -0.061400
     23 C21         41.2270   -43.7810     8.0230 c5         1 WQR      -0.078400
     24 C12         41.7540   -42.6670     7.0290 c5         1 WQR      -0.056700
     25 C13         40.8270   -41.3970     6.9880 c3         1 WQR      -0.048700
     26 C20         41.2510   -40.3370     5.9400 c3         1 WQR      -0.087100
     27 C14         40.6940   -40.7300     8.4180 c3         1 WQR      -0.073400
     28 C15         39.6610   -39.5670     8.6240 c3         1 WQR      -0.036200
     29 C16         38.2610   -39.9430     8.1700 c2         1 WQR      -0.222200
     30 C17         37.3310   -40.6270     8.8620 c2         1 WQR      -0.116400
     31 C19         35.9590   -40.9350     8.2910 c3         1 WQR      -0.055400
     32 C18         37.5110   -41.1850    10.2660 c3         1 WQR      -0.055400
     33 H1          41.4390   -46.9490     2.7300 hc         1 WQR       0.036033
     34 H2          41.9200   -45.6440     1.6660 hc         1 WQR       0.036033
     35 H3          42.2770   -47.2830     1.2140 hc         1 WQR       0.036033
     36 H4          45.5910   -45.6330     2.3990 hc         1 WQR       0.042200
     37 H5          44.3500   -45.0710     1.2880 hc         1 WQR       0.042200
     38 H6          45.9240   -46.5770     0.1490 hc         1 WQR       0.053700
     39 H7          44.3160   -47.2680     0.1200 hc         1 WQR       0.053700
     40 H8          46.5730   -47.9630     2.0760 h1         1 WQR       0.024700
     41 H9          46.4880   -49.9900     0.9390 ho         1 WQR       0.442000
     42 H10         42.7010   -49.9860     2.3190 hc         1 WQR       0.034700
     43 H11         43.1480   -49.1490     0.8250 hc         1 WQR       0.034700
     44 H12         43.9130   -50.6530     1.2400 hc         1 WQR       0.034700
     45 H13         44.7560   -50.6620     3.8910 hc         1 WQR       0.034700
     46 H14         45.9330   -50.7960     2.6020 hc         1 WQR       0.034700
     47 H15         46.2050   -49.6480     3.9120 hc         1 WQR       0.034700
     48 H16         45.0480   -47.5490     4.0330 hc         1 WQR       0.045700
     49 H17         42.1740   -48.5730     4.0680 hc         1 WQR       0.044200
     50 H18         43.4730   -49.2670     5.0020 hc         1 WQR       0.044200
     51 H19         41.9750   -47.5170     6.1430 hc         1 WQR       0.052200
     52 H20         43.7020   -47.4380     6.4180 hc         1 WQR       0.052200
     53 H21         44.4130   -43.6680     3.2310 hc         1 WQR       0.047200
     54 H22         42.7550   -43.7530     2.6770 hc         1 WQR       0.047200
     55 H23         43.8700   -42.4910     5.1410 hc         1 WQR       0.042700
     56 H24         42.5290   -42.0280     4.1430 hc         1 WQR       0.042700
     57 H25         39.8540   -44.1320     5.6510 hc         1 WQR       0.037033
     58 H26         40.2700   -42.9300     4.4460 hc         1 WQR       0.037033
     59 H27         40.7500   -44.6050     4.2150 hc         1 WQR       0.037033
     60 H28         44.8810   -44.0910     6.2890 h4         1 WQR      -0.010800
     61 H29         40.8240   -45.6950     7.0100 hc         1 WQR       0.054700
     62 H30         42.0960   -45.8250     8.2060 hc         1 WQR       0.054700
     63 H31         41.6340   -43.6270     9.0300 hc         1 WQR       0.047700
     64 H32         40.1360   -43.7560     8.1260 hc         1 WQR       0.047700
     65 H33         42.7110   -42.2810     7.3990 hc         1 WQR       0.044700
     66 H34         39.8200   -41.7270     6.7060 hc         1 WQR       0.049700
     67 H35         40.6910   -39.4040     6.0600 hc         1 WQR       0.032033
     68 H36         42.3200   -40.1060     6.0230 hc         1 WQR       0.032033
     69 H37         41.0380   -40.6850     4.9260 hc         1 WQR       0.032033
     70 H38         40.4310   -41.5060     9.1450 hc         1 WQR       0.041200
     71 H39         41.6820   -40.3640     8.7240 hc         1 WQR       0.041200
     72 H40         39.9990   -38.6710     8.0920 hc         1 WQR       0.044200
     73 H41         39.6570   -39.2850     9.6830 hc         1 WQR       0.044200
     74 H42         38.0310   -39.5910     7.1630 ha         1 WQR       0.164000
     75 H45         35.8380   -40.5310     7.2790 hc         1 WQR       0.037867
     76 H46         35.7880   -42.0160     8.2360 hc         1 WQR       0.037867
     77 H47         35.1660   -40.5010     8.9130 hc         1 WQR       0.037867
     78 H48         37.3670   -42.2720    10.2750 hc         1 WQR       0.037867
     79 H49         38.5060   -40.9900    10.6780 hc         1 WQR       0.037867
     80 H50         36.7810   -40.7470    10.9580 hc         1 WQR       0.037867
@<TRIPOS>BOND
     1     1     2 1   
     2     1    33 1   
     3     1    34 1   
     4     1    35 1   
     5     2     3 1   
     6     2    10 1   
     7     2    14 1   
     8     3     4 1   
     9     3    36 1   
    10     3    37 1   
    11     4     5 1   
    12     4    38 1   
    13     4    39 1   
    14     5     6 1   
    15     5     7 1   
    16     5    40 1   
    17     6    41 1   
    18     7     8 1   
    19     7     9 1   
    20     7    10 1   
    21     8    42 1   
    22     8    43 1   
    23     8    44 1   
    24     9    45 1   
    25     9    46 1   
    26     9    47 1   
    27    10    11 1   
    28    10    48 1   
    29    11    12 1   
    30    11    49 1   
    31    11    50 1   
    32    12    13 1   
    33    12    51 1   
    34    12    52 1   
    35    13    14 2   
    36    13    19 1   
    37    14    15 1   
    38    15    16 1   
    39    15    53 1   
    40    15    54 1   
    41    16    17 1   
    42    16    55 1   
    43    16    56 1   
    44    17    18 1   
    45    17    19 1   
    46    17    24 1   
    47    18    57 1   
    48    18    58 1   
    49    18    59 1   
    50    19    20 1   
    51    19    22 1   
    52    20    21 2   
    53    20    60 1   
    54    22    23 1   
    55    22    61 1   
    56    22    62 1   
    57    23    24 1   
    58    23    63 1   
    59    23    64 1   
    60    24    25 1   
    61    24    65 1   
    62    25    26 1   
    63    25    27 1   
    64    25    66 1   
    65    26    67 1   
    66    26    68 1   
    67    26    69 1   
    68    27    28 1   
    69    27    70 1   
    70    27    71 1   
    71    28    29 1   
    72    28    72 1   
    73    28    73 1   
    74    29    30 2   
    75    29    74 1   
    76    30    31 1   
    77    30    32 1   
    78    31    75 1   
    79    31    76 1   
    80    31    77 1   
    81    32    78 1   
    82    32    79 1   
    83    32    80 1   
@<TRIPOS>SUBSTRUCTURE
     1 WQR         1 TEMP              0 ****  ****    0 ROOT
