@<TRIPOS>MOLECULE
WQS
   22    23     1     0     0
SMALL
No Charge or Current Charge


@<TRIPOS>ATOM
      1 C01          1.4870     1.1020    -0.3720 c3         1 WQS      -0.191400
      2 C02          0.7790     0.0150     0.4930 c5         1 WQS      -0.085400
      3 C03          1.1750    -1.4510     0.0740 c          1 WQS       0.564000
      4 N04         -0.0060    -1.9660    -0.4250 ns         1 WQS      -0.165000
      5 C05         -1.1330    -1.1670    -0.2960 ca         1 WQS      -0.040000
      6 C06         -2.4650    -1.4420    -0.6280 ca         1 WQS      -0.144000
      7 C07         -3.4220    -0.4410    -0.3600 ca         1 WQS      -0.137000
      8 C08         -3.0250     0.7840     0.2260 ca         1 WQS       0.118000
      9 C09         -1.6740     1.0280     0.5510 ca         1 WQS      -0.099000
     10 C10         -0.7350     0.0200     0.2800 ca         1 WQS      -0.093300
     11 F11         -3.9520     1.7340     0.4750 f          1 WQS      -0.197000
     12 O12          2.1900    -2.0960     0.3000 o          1 WQS      -0.493000
     13 C13          2.9940     1.1610    -0.0710 c          1 WQS       0.726000
     14 O14          3.3640     1.8290     0.8830 o          1 WQS      -0.728000
     15 O15          3.7490     0.5070    -0.7740 o          1 WQS      -0.728000
     16 H011         1.3140     0.8450    -1.4250 hc         1 WQS       0.028200
     17 H012         1.0280     2.0550    -0.0800 hc         1 WQS       0.028200
     18 H02          1.0810     0.1690     1.5350 hc         1 WQS       0.120700
     19 H04         -0.0820    -2.9370    -0.6980 hn         1 WQS       0.152000
     20 H06         -2.7510    -2.3920    -1.0740 ha         1 WQS       0.110000
     21 H07         -4.4690    -0.6090    -0.6020 ha         1 WQS       0.115000
     22 H09         -1.3710     1.9720     0.9960 ha         1 WQS       0.139000
@<TRIPOS>BOND
     1     1     2 1   
     2     1    13 1   
     3     1    16 1   
     4     1    17 1   
     5     2     3 1   
     6     2    10 1   
     7     2    18 1   
     8     3     4 1   
     9     3    12 2   
    10     4     5 1   
    11     4    19 1   
    12     5     6 ar  
    13     5    10 ar  
    14     6     7 ar  
    15     6    20 1   
    16     7     8 ar  
    17     7    21 1   
    18     8     9 ar  
    19     8    11 1   
    20     9    10 ar  
    21     9    22 1   
    22    13    14 1   
    23    13    15 1   
@<TRIPOS>SUBSTRUCTURE
     1 WQS         1 TEMP              0 ****  ****    0 ROOT
