@<TRIPOS>MOLECULE
WQS
   22    23     1     0     0
SMALL
abcg2


@<TRIPOS>ATOM
      1 C01          1.5350     1.0360    -0.3780 c3         1 WQS      -0.191400
      2 C02          0.7410     0.0210     0.4420 c5         1 WQS      -0.085400
      3 C03          1.0940    -1.4140     0.0600 c          1 WQS       0.564000
      4 N04         -0.0670    -2.0510    -0.2600 ns         1 WQS      -0.165000
      5 C05         -1.1680    -1.2060    -0.1790 ca         1 WQS      -0.040000
      6 C06         -2.4950    -1.4770    -0.4490 ca         1 WQS      -0.144000
      7 C07         -3.4170    -0.4440    -0.2930 ca         1 WQS      -0.137000
      8 C08         -2.9840     0.8010     0.1180 ca         1 WQS       0.118000
      9 C09         -1.6520     1.0800     0.3900 ca         1 WQS      -0.099000
     10 C10         -0.7430     0.0550     0.2370 ca         1 WQS      -0.093300
     11 F11         -3.8900     1.7880     0.2600 f          1 WQS      -0.197000
     12 O12          2.2010    -1.9110     0.0250 o          1 WQS      -0.493000
     13 C13          3.0270     1.1050     0.0060 c          1 WQS       0.726000
     14 O14          3.2890     1.0540     1.2240 o          1 WQS      -0.728000
     15 O15          3.8380     1.2580    -0.9270 o          1 WQS      -0.728000
     16 H011         1.4080     0.8420    -1.4450 hc         1 WQS       0.028200
     17 H012         1.1070     2.0270    -0.1910 hc         1 WQS       0.028200
     18 H02          0.9920     0.1650     1.4980 hc         1 WQS       0.120700
     19 H04         -0.1050    -3.0090    -0.5730 hn         1 WQS       0.152000
     20 H06         -2.8210    -2.4560    -0.7730 ha         1 WQS       0.110000
     21 H07         -4.4670    -0.6140    -0.4940 ha         1 WQS       0.115000
     22 H09         -1.3470     2.0690     0.7100 ha         1 WQS       0.139000
@<TRIPOS>BOND
     1     1     2 1   
     2     1    13 1   
     3     1    16 1   
     4     1    17 1   
     5     2     3 1   
     6     2    10 1   
     7     2    18 1   
     8     3     4 1   
     9     3    12 2   
    10     4     5 1   
    11     4    19 1   
    12     5     6 ar  
    13     5    10 ar  
    14     6     7 ar  
    15     6    20 1   
    16     7     8 ar  
    17     7    21 1   
    18     8     9 ar  
    19     8    11 1   
    20     9    10 ar  
    21     9    22 1   
    22    13    14 1   
    23    13    15 1   
@<TRIPOS>SUBSTRUCTURE
     1 WQS         1 TEMP              0 ****  ****    0 ROOT
