@<TRIPOS>MOLECULE
WQU
   67    70     1     0     0
SMALL
No Charge or Current Charge


@<TRIPOS>ATOM
      1 N1         -35.6790   -32.5110   -69.7320 n3         1 WQU      -0.716600
      2 N3         -41.6760   -31.9100   -67.4120 no         1 WQU       0.680200
      3 C4         -37.1010   -32.0570   -69.6490 c3         1 WQU       0.224100
      4 C5         -37.4110   -31.1260   -68.4710 ca         1 WQU      -0.118300
      5 C6         -37.2960   -29.7270   -68.6000 ca         1 WQU      -0.099000
      6 C7         -37.5980   -28.8860   -67.5160 ca         1 WQU      -0.107000
      7 C8         -38.0230   -29.4330   -66.2960 ca         1 WQU      -0.102000
      8 C13        -42.7760   -29.7920   -66.6440 ca         1 WQU      -0.099000
      9 C15        -44.2980   -27.3000   -67.3850 c6         1 WQU       0.195300
     10 C17        -45.9110   -26.3170   -65.3320 c6         1 WQU       0.143600
     11 C20        -41.2100   -29.7170   -64.3310 ca         1 WQU      -0.173000
     12 C21        -37.8490   -31.6660   -67.2440 ca         1 WQU      -0.088000
     13 C22        -35.2800   -33.2880   -68.5180 c6         1 WQU       0.131800
     14 C24        -32.8300   -32.7990   -68.9070 c6         1 WQU       0.175300
     15 C1         -33.2220   -32.0280   -70.1970 c6         1 WQU       0.131300
     16 C11        -41.0430   -30.7770   -65.2350 ca         1 WQU       0.383000
     17 C12        -41.8330   -30.8250   -66.4040 ca         1 WQU      -0.242200
     18 C14        -42.9480   -28.7260   -65.7370 ca         1 WQU       0.275000
     19 C16        -44.7380   -25.8050   -67.4410 c6         1 WQU       0.143600
     20 C18        -44.5290   -26.8930   -64.8920 c6         1 WQU       0.195300
     21 C19        -42.1520   -28.7030   -64.5740 ca         1 WQU      -0.068000
     22 C2         -34.6760   -31.4330   -70.0860 c6         1 WQU       0.172500
     23 C23        -33.8680   -33.9270   -68.6240 c6         1 WQU       0.172300
     24 C3         -35.0210   -30.6380   -71.4070 c3         1 WQU       0.156600
     25 C9         -38.1510   -30.8280   -66.1520 ca         1 WQU      -0.121300
     26 N2         -40.0750   -31.7360   -64.9570 nu         1 WQU      -0.957200
     27 N4         -43.8990   -27.7020   -65.9920 nh         1 WQU      -0.843400
     28 O1         -32.2230   -31.0100   -70.4630 oh         1 WQU      -0.737000
     29 O2         -34.9700   -31.4450   -72.5990 oh         1 WQU      -0.654000
     30 O3         -41.3840   -33.0480   -67.0190 o          1 WQU      -0.428000
     31 O4         -41.9560   -31.6490   -68.5890 o          1 WQU      -0.428000
     32 O5         -45.8380   -25.4980   -66.5360 os         1 WQU      -0.462000
     33 O6         -33.5530   -34.6470   -67.4090 oh         1 WQU      -0.707000
     34 O7         -31.4930   -33.3150   -69.0650 oh         1 WQU      -0.647000
     35 H2         -37.4160   -31.5720   -70.5810 h1         1 WQU       0.065700
     36 H3         -37.7510   -32.9380   -69.5570 h1         1 WQU       0.065700
     37 H4         -36.9800   -29.2840   -69.5400 ha         1 WQU       0.111000
     38 H5         -37.5080   -27.8070   -67.6250 ha         1 WQU       0.117000
     39 H6         -38.2640   -28.7730   -65.4650 ha         1 WQU       0.113000
     40 H7         -38.4680   -30.7160   -64.0200 h1         1 WQU       0.063200
     41 H8         -38.0730   -32.3360   -64.6160 h1         1 WQU       0.063200
     42 H10        -43.4520   -27.4340   -68.0770 h1         1 WQU       0.051950
     43 H11        -45.1210   -27.9340   -67.7460 h1         1 WQU       0.051950
     44 H12        -46.5950   -27.1560   -65.5260 h1         1 WQU       0.054700
     45 H13        -46.3450   -25.7180   -64.5190 h1         1 WQU       0.054700
     46 H14        -40.6040   -29.6780   -63.4310 ha         1 WQU       0.128000
     47 H15        -37.9590   -32.7430   -67.1390 ha         1 WQU       0.117000
     48 H16        -36.0100   -34.0910   -68.3350 h1         1 WQU       0.044700
     49 H17        -35.2940   -32.6350   -67.6320 h1         1 WQU       0.044700
     50 H18        -32.8570   -32.0900   -68.0650 h1         1 WQU       0.054700
     51 H19        -33.2320   -32.7590   -71.0210 h1         1 WQU       0.073700
     52 H20        -45.0330   -25.5370   -68.4650 h1         1 WQU       0.054700
     53 H21        -43.8790   -25.1740   -67.1700 h1         1 WQU       0.054700
     54 H22        -43.8680   -26.0630   -64.6000 h1         1 WQU       0.051950
     55 H23        -44.6870   -27.5190   -64.0010 h1         1 WQU       0.051950
     56 H24        -42.2500   -27.8920   -63.8590 ha         1 WQU       0.119000
     57 H25        -34.6610   -30.6920   -69.2730 h1         1 WQU       0.045700
     58 H26        -33.8670   -34.6170   -69.4820 h1         1 WQU       0.058700
     59 H27        -34.3180   -29.8010   -71.4990 h1         1 WQU       0.024700
     60 H28        -36.0130   -30.1830   -71.3120 h1         1 WQU       0.024700
     61 H29        -40.2580   -32.6010   -65.4730 hn         1 WQU       0.533000
     62 H30        -32.3250   -30.7510   -71.4090 ho         1 WQU       0.509000
     63 H31        -35.3300   -30.8980   -73.3320 ho         1 WQU       0.438000
     64 H32        -34.0140   -35.5160   -67.4640 ho         1 WQU       0.503000
     65 H33        -31.0200   -32.5950   -69.5420 ho         1 WQU       0.451000
     66 C10        -38.6450   -31.4240   -64.8410 c3         1 WQU       0.273100
     67 H9         -43.3930   -29.8260   -67.5370 ha         1 WQU       0.149000
@<TRIPOS>BOND
     1     1     3 1   
     2     1    13 1   
     3     1    22 1   
     4     2    17 1   
     5     2    30 1   
     6     2    31 1   
     7     3     4 1   
     8     3    35 1   
     9     3    36 1   
    10     4     5 ar  
    11     4    12 ar  
    12     5     6 ar  
    13     5    37 1   
    14     6     7 ar  
    15     6    38 1   
    16     7    25 ar  
    17     7    39 1   
    18     8    17 ar  
    19     8    18 ar  
    20     8    67 1   
    21     9    19 1   
    22     9    27 1   
    23     9    42 1   
    24     9    43 1   
    25    10    20 1   
    26    10    32 1   
    27    10    44 1   
    28    10    45 1   
    29    11    16 ar  
    30    11    21 ar  
    31    11    46 1   
    32    12    25 ar  
    33    12    47 1   
    34    13    23 1   
    35    13    48 1   
    36    13    49 1   
    37    14    15 1   
    38    14    23 1   
    39    14    34 1   
    40    14    50 1   
    41    15    22 1   
    42    15    28 1   
    43    15    51 1   
    44    16    17 ar  
    45    16    26 1   
    46    18    21 ar  
    47    18    27 1   
    48    19    32 1   
    49    19    52 1   
    50    19    53 1   
    51    20    27 1   
    52    20    54 1   
    53    20    55 1   
    54    21    56 1   
    55    22    24 1   
    56    22    57 1   
    57    23    33 1   
    58    23    58 1   
    59    24    29 1   
    60    24    59 1   
    61    24    60 1   
    62    25    66 1   
    63    26    61 1   
    64    26    66 1   
    65    28    62 1   
    66    29    63 1   
    67    33    64 1   
    68    34    65 1   
    69    40    66 1   
    70    41    66 1   
@<TRIPOS>SUBSTRUCTURE
     1 WQU         1 TEMP              0 ****  ****    0 ROOT
