@<TRIPOS>MOLECULE
WQU
   67    70     1     0     0
SMALL
abcg2


@<TRIPOS>ATOM
      1 N1         -36.0800   -31.4020   -69.5620 n3         1 WQU      -0.716600
      2 N3         -41.9000   -32.7500   -66.1460 no         1 WQU       0.680200
      3 C4         -37.0410   -30.4040   -69.0670 c3         1 WQU       0.224100
      4 C5         -36.8820   -30.0040   -67.6120 ca         1 WQU      -0.118300
      5 C6         -35.9630   -29.0350   -67.2050 ca         1 WQU      -0.099000
      6 C7         -35.8230   -28.7160   -65.8590 ca         1 WQU      -0.107000
      7 C8         -36.6060   -29.3520   -64.9020 ca         1 WQU      -0.102000
      8 C13        -42.7740   -30.5260   -66.4400 ca         1 WQU      -0.099000
      9 C15        -44.7420   -28.8750   -67.6870 c6         1 WQU       0.195300
     10 C17        -45.3960   -26.6770   -66.3040 c6         1 WQU       0.143600
     11 C20        -40.6110   -29.4040   -65.1220 ca         1 WQU      -0.173000
     12 C21        -37.6560   -30.6330   -66.6370 ca         1 WQU      -0.088000
     13 C22        -36.1420   -32.6360   -68.7900 c6         1 WQU       0.131800
     14 C24        -33.9770   -33.3830   -69.7310 c6         1 WQU       0.175300
     15 C1         -33.9160   -32.0550   -70.4690 c6         1 WQU       0.131300
     16 C11        -40.6310   -30.8170   -65.2380 ca         1 WQU       0.383000
     17 C12        -41.7550   -31.3510   -65.9270 ca         1 WQU      -0.242200
     18 C14        -42.7210   -29.1470   -66.3200 ca         1 WQU       0.275000
     19 C16        -45.4340   -27.7580   -68.4460 c6         1 WQU       0.143600
     20 C18        -43.9060   -26.9670   -66.3600 c6         1 WQU       0.195300
     21 C19        -41.5980   -28.6080   -65.6370 ca         1 WQU      -0.068000
     22 C2         -34.7000   -30.9430   -69.7510 c6         1 WQU       0.172500
     23 C23        -35.4150   -33.7790   -69.4900 c6         1 WQU       0.172300
     24 C3         -34.5990   -29.6470   -70.5440 c3         1 WQU       0.156600
     25 C9         -37.5330   -30.3180   -65.2870 ca         1 WQU      -0.121300
     26 N2         -39.6250   -31.5610   -64.7220 nu         1 WQU      -0.957200
     27 N4         -43.6800   -28.3200   -66.8660 nh         1 WQU      -0.843400
     28 O1         -32.5250   -31.7310   -70.5780 oh         1 WQU      -0.737000
     29 O2         -35.2190   -29.8050   -71.8220 oh         1 WQU      -0.654000
     30 O3         -41.0560   -33.5420   -65.6770 o          1 WQU      -0.428000
     31 O4         -42.8650   -33.1660   -66.8010 o          1 WQU      -0.428000
     32 O5         -46.0280   -26.7820   -67.5820 os         1 WQU      -0.462000
     33 O6         -35.4270   -34.9540   -68.6790 oh         1 WQU      -0.707000
     34 O7         -33.3160   -34.3990   -70.4810 oh         1 WQU      -0.647000
     35 H2         -36.9900   -29.5260   -69.7090 h1         1 WQU       0.065700
     36 H3         -38.0340   -30.8380   -69.1980 h1         1 WQU       0.065700
     37 H4         -35.3630   -28.5110   -67.9380 ha         1 WQU       0.111000
     38 H5         -35.1130   -27.9560   -65.5560 ha         1 WQU       0.117000
     39 H6         -36.5090   -29.0860   -63.8560 ha         1 WQU       0.113000
     40 H7         -38.5640   -30.3150   -63.4090 h1         1 WQU       0.063200
     41 H8         -37.8200   -31.8470   -63.8100 h1         1 WQU       0.063200
     42 H10        -44.3160   -29.5680   -68.4170 h1         1 WQU       0.051950
     43 H11        -45.4730   -29.4400   -67.0900 h1         1 WQU       0.051950
     44 H12        -45.8740   -27.3650   -65.5980 h1         1 WQU       0.054700
     45 H13        -45.5600   -25.6570   -65.9530 h1         1 WQU       0.054700
     46 H14        -39.7760   -28.9340   -64.6250 ha         1 WQU       0.128000
     47 H15        -38.3840   -31.3750   -66.9420 ha         1 WQU       0.117000
     48 H16        -37.1900   -32.9130   -68.6620 h1         1 WQU       0.044700
     49 H17        -35.7100   -32.5250   -67.7820 h1         1 WQU       0.044700
     50 H18        -33.4830   -33.2630   -68.7570 h1         1 WQU       0.054700
     51 H19        -34.3400   -32.1930   -71.4660 h1         1 WQU       0.073700
     52 H20        -46.2330   -28.1700   -69.0620 h1         1 WQU       0.054700
     53 H21        -44.7080   -27.2660   -69.1030 h1         1 WQU       0.054700
     54 H22        -43.4000   -26.2180   -66.9800 h1         1 WQU       0.051950
     55 H23        -43.5140   -26.8750   -65.3460 h1         1 WQU       0.051950
     56 H24        -41.4960   -27.5370   -65.5320 ha         1 WQU       0.119000
     57 H25        -34.1990   -30.7540   -68.7860 h1         1 WQU       0.045700
     58 H26        -35.8920   -33.9830   -70.4550 h1         1 WQU       0.058700
     59 H27        -33.5390   -29.4040   -70.6560 h1         1 WQU       0.024700
     60 H28        -35.0620   -28.8220   -70.0000 h1         1 WQU       0.024700
     61 H29        -39.6830   -32.5520   -64.8920 hn         1 WQU       0.533000
     62 H30        -32.3750   -31.2620   -71.4060 ho         1 WQU       0.509000
     63 H31        -35.0810   -28.9930   -72.3230 ho         1 WQU       0.438000
     64 H32        -36.3380   -35.2690   -68.6170 ho         1 WQU       0.503000
     65 H33        -32.4600   -34.0300   -70.7430 ho         1 WQU       0.451000
     66 C10        -38.3780   -31.0100   -64.2320 c3         1 WQU       0.273100
     67 H9         -43.6010   -31.0120   -66.9270 ha         1 WQU       0.149000
@<TRIPOS>BOND
     1     1     3 1   
     2     1    13 1   
     3     1    22 1   
     4     2    17 1   
     5     2    30 1   
     6     2    31 1   
     7     3     4 1   
     8     3    35 1   
     9     3    36 1   
    10     4     5 ar  
    11     4    12 ar  
    12     5     6 ar  
    13     5    37 1   
    14     6     7 ar  
    15     6    38 1   
    16     7    25 ar  
    17     7    39 1   
    18     8    17 ar  
    19     8    18 ar  
    20     8    67 1   
    21     9    19 1   
    22     9    27 1   
    23     9    42 1   
    24     9    43 1   
    25    10    20 1   
    26    10    32 1   
    27    10    44 1   
    28    10    45 1   
    29    11    16 ar  
    30    11    21 ar  
    31    11    46 1   
    32    12    25 ar  
    33    12    47 1   
    34    13    23 1   
    35    13    48 1   
    36    13    49 1   
    37    14    15 1   
    38    14    23 1   
    39    14    34 1   
    40    14    50 1   
    41    15    22 1   
    42    15    28 1   
    43    15    51 1   
    44    16    17 ar  
    45    16    26 1   
    46    18    21 ar  
    47    18    27 1   
    48    19    32 1   
    49    19    52 1   
    50    19    53 1   
    51    20    27 1   
    52    20    54 1   
    53    20    55 1   
    54    21    56 1   
    55    22    24 1   
    56    22    57 1   
    57    23    33 1   
    58    23    58 1   
    59    24    29 1   
    60    24    59 1   
    61    24    60 1   
    62    25    66 1   
    63    26    61 1   
    64    26    66 1   
    65    28    62 1   
    66    29    63 1   
    67    33    64 1   
    68    34    65 1   
    69    40    66 1   
    70    41    66 1   
@<TRIPOS>SUBSTRUCTURE
     1 WQU         1 TEMP              0 ****  ****    0 ROOT
