@<TRIPOS>MOLECULE
WQV
   19    19     1     0     0
SMALL
abcg2


@<TRIPOS>ATOM
      1 N1          -2.5000    14.9680     1.1070 ns         1 WQV      -0.348100
      2 C4          -2.9180    14.9120    -1.1880 cc         1 WQV      -0.111300
      3 C5          -2.0320    14.9590    -0.1670 cd         1 WQV      -0.042400
      4 C6          -3.8120    14.9330     1.4760 c          1 WQV       0.537200
      5 O1          -7.1990    14.8140    -1.1790 o          1 WQV      -0.581100
      6 C1          -7.2070    14.8230     0.0380 c          1 WQV       0.607100
      7 C           -8.4700    14.8100     0.8590 c3         1 WQV      -0.180100
      8 C2          -4.7550    14.8830     0.3640 cd         1 WQV      -0.045600
      9 O           -4.1590    14.9430     2.6550 o          1 WQV      -0.576000
     10 BR          -2.3100    14.8980    -2.9650 br         1 WQV      -0.049700
     11 C3          -4.3110    14.8720    -0.9260 cc         1 WQV      -0.136000
     12 H1          -1.8230    15.0040     1.8580 hn         1 WQV       0.333500
     13 H2          -0.9600    14.9910    -0.2830 h4         1 WQV       0.218000
     14 H3          -9.3400    14.7710     0.2100 hc         1 WQV       0.066700
     15 H4          -8.4890    13.9480     1.5270 hc         1 WQV       0.066700
     16 H5          -8.5330    15.7050     1.4790 hc         1 WQV       0.066700
     17 H6          -6.1770    14.8600     1.7940 hn         1 WQV       0.343500
     18 H7          -5.0110    14.8360    -1.7450 ha         1 WQV       0.237000
     19 N           -6.0720    14.8510     0.7880 ns         1 WQV      -0.407100
@<TRIPOS>BOND
     1     1     3 1   
     2     1     4 1   
     3     1    12 1   
     4     2     3 2   
     5     2    10 1   
     6     2    11 1   
     7     3    13 1   
     8     4     8 1   
     9     4     9 2   
    10     5     6 2   
    11     6     7 1   
    12     6    19 1   
    13     7    14 1   
    14     7    15 1   
    15     7    16 1   
    16     8    11 2   
    17     8    19 1   
    18    11    18 1   
    19    17    19 1   
@<TRIPOS>SUBSTRUCTURE
     1 WQV         1 TEMP              0 ****  ****    0 ROOT
