@<TRIPOS>MOLECULE
WQV
   19    19     1     0     0
SMALL
No Charge or Current Charge


@<TRIPOS>ATOM
      1 N1          -2.4300    14.9670     1.1280 ns         1 WQV      -0.348100
      2 C4          -2.8990    14.9120    -1.2130 cc         1 WQV      -0.111300
      3 C5          -1.9840    14.9540    -0.1820 cd         1 WQV      -0.042400
      4 C6          -3.7440    14.9400     1.5310 c          1 WQV       0.537200
      5 O1          -7.2800    14.7990    -1.2150 o          1 WQV      -0.581100
      6 C1          -7.2550    14.8210     0.0070 c          1 WQV       0.607100
      7 C           -8.5380    14.8020     0.8280 c3         1 WQV      -0.180100
      8 C2          -4.7420    14.8930     0.4120 cd         1 WQV      -0.045600
      9 O           -4.0470    14.9530     2.7160 o          1 WQV      -0.576000
     10 Br          -2.3140    14.8950    -3.0060 br         1 WQV      -0.049700
     11 C3          -4.3040    14.8810    -0.9070 cc         1 WQV      -0.136000
     12 H1          -1.7630    14.9980     1.8910 hn         1 WQV       0.333500
     13 H2          -0.9040    14.9800    -0.3110 h4         1 WQV       0.218000
     14 H3          -9.4380    14.7680     0.2030 hc         1 WQV       0.066700
     15 H4          -8.5020    13.9610     1.5300 hc         1 WQV       0.066700
     16 H5          -8.5460    15.6680     1.5000 hc         1 WQV       0.066700
     17 H6          -6.3010    14.8770     1.7650 hn         1 WQV       0.343500
     18 H7          -4.9860    14.8480    -1.7480 ha         1 WQV       0.237000
     19 N           -6.1000    14.8650     0.7710 ns         1 WQV      -0.407100
@<TRIPOS>BOND
     1     1     3 1   
     2     1     4 1   
     3     1    12 1   
     4     2     3 2   
     5     2    10 1   
     6     2    11 1   
     7     3    13 1   
     8     4     8 1   
     9     4     9 2   
    10     5     6 2   
    11     6     7 1   
    12     6    19 1   
    13     7    14 1   
    14     7    15 1   
    15     7    16 1   
    16     8    11 2   
    17     8    19 1   
    18    11    18 1   
    19    17    19 1   
@<TRIPOS>SUBSTRUCTURE
     1 WQV         1 TEMP              0 ****  ****    0 ROOT
