@<TRIPOS>MOLECULE
WQW
   47    50     1     0     0
SMALL
No Charge or Current Charge


@<TRIPOS>ATOM
      1 N1         143.3360   178.7430   134.3670 ny         1 WQW      -0.822000
      2 N3         143.8860   176.8690   142.6450 nb         1 WQW      -0.727000
      3 C4         144.3030   177.6250   134.8820 c6         1 WQW       0.095100
      4 C5         143.6740   177.9630   138.5950 ca         1 WQW       0.254000
      5 C6         143.5200   178.9390   139.5980 ca         1 WQW      -0.121000
      6 C7         143.5890   178.5830   140.9610 ca         1 WQW      -0.072000
      7 C8         143.8150   177.2390   141.3470 ca         1 WQW       0.301000
      8 C10        143.9000   176.6290   138.9770 ca         1 WQW      -0.101000
      9 C13        143.7320   177.8090   143.6010 ca         1 WQW       0.609900
     10 C15        142.3460   176.4000   146.8010 c6         1 WQW       0.080600
     11 C17        144.7160   176.1130   145.2160 c6         1 WQW       0.201800
     12 C1         142.1610   179.1410   135.3210 c6         1 WQW       0.095100
     13 C11        143.4400   179.5660   141.9540 ca         1 WQW      -0.030000
     14 C12        143.5140   179.1820   143.3010 ca         1 WQW       0.048000
     15 C14        142.7680   177.6230   145.9390 c6         1 WQW       0.201800
     16 C16        144.9860   175.9450   146.7380 c6         1 WQW       0.080600
     17 C2         142.7330   179.4210   136.7390 c6         1 WQW       0.159800
     18 C3         144.7680   177.9900   136.3210 c6         1 WQW       0.159800
     19 C9         143.9680   176.2740   140.3370 ca         1 WQW      -0.056000
     20 N2         143.6080   178.3000   137.2230 nh         1 WQW      -0.779400
     21 N4         143.8200   177.2880   144.9130 nh         1 WQW      -0.791300
     22 N5         143.6170   175.7890   147.4890 ny         1 WQW      -0.826000
     23 Cl1        143.3800   180.4380   144.5410 cl         1 WQW      -0.155000
     24 H1         143.8980   179.5960   134.1610 hn         1 WQW       0.509500
     25 H2         142.9530   178.4700   133.4360 hn         1 WQW       0.509500
     26 H9         143.7390   176.6860   134.8860 hx         1 WQW       0.113700
     27 H10        145.1430   177.5360   134.1830 hx         1 WQW       0.113700
     28 H11        143.3590   179.9770   139.3230 ha         1 WQW       0.122000
     29 H13        144.0110   175.8620   138.2170 ha         1 WQW       0.130000
     30 H18        141.9140   175.6200   146.1630 hx         1 WQW       0.112950
     31 H23        144.2660   175.1840   144.8360 h1         1 WQW       0.093700
     32 H24        145.6840   176.2320   144.7080 h1         1 WQW       0.093700
     33 H4         141.6440   180.0120   134.9000 hx         1 WQW       0.113700
     34 H3         141.4670   178.2930   135.3470 hx         1 WQW       0.113700
     35 H14        143.2780   180.6090   141.6910 ha         1 WQW       0.149000
     36 H16        143.1370   178.4120   146.6120 h1         1 WQW       0.093700
     37 H15        141.8650   178.0200   145.4500 h1         1 WQW       0.093700
     38 H22        145.6090   175.0700   146.9590 hx         1 WQW       0.112950
     39 H21        145.4790   176.8400   147.1340 hx         1 WQW       0.112950
     40 H5         143.3020   180.3630   136.7160 h1         1 WQW       0.081950
     41 H6         141.8840   179.5740   137.4230 h1         1 WQW       0.081950
     42 H8         145.3640   177.1530   136.7150 h1         1 WQW       0.081950
     43 H7         145.4420   178.8580   136.2670 h1         1 WQW       0.081950
     44 H12        144.1400   175.2370   140.6130 ha         1 WQW       0.146000
     45 H20        143.4410   174.7780   147.6790 hn         1 WQW       0.508500
     46 H19        143.7170   176.1900   148.4480 hn         1 WQW       0.508500
     47 H17        141.6190   176.6630   147.5790 hx         1 WQW       0.112950
@<TRIPOS>BOND
     1     1     3 1   
     2     1    12 1   
     3     1    24 1   
     4     1    25 1   
     5     2     7 ar  
     6     2     9 ar  
     7     3    18 1   
     8     3    26 1   
     9     3    27 1   
    10     4     5 ar  
    11     4     8 ar  
    12     4    20 1   
    13     5     6 ar  
    14     5    28 1   
    15     6     7 ar  
    16     6    13 ar  
    17     7    19 ar  
    18     8    19 ar  
    19     8    29 1   
    20     9    14 ar  
    21     9    21 1   
    22    10    15 1   
    23    10    22 1   
    24    10    30 1   
    25    10    47 1   
    26    11    16 1   
    27    11    21 1   
    28    11    31 1   
    29    11    32 1   
    30    12    17 1   
    31    12    33 1   
    32    12    34 1   
    33    13    14 ar  
    34    13    35 1   
    35    14    23 1   
    36    15    21 1   
    37    15    36 1   
    38    15    37 1   
    39    16    22 1   
    40    16    38 1   
    41    16    39 1   
    42    17    20 1   
    43    17    40 1   
    44    17    41 1   
    45    18    20 1   
    46    18    42 1   
    47    18    43 1   
    48    19    44 1   
    49    22    45 1   
    50    22    46 1   
@<TRIPOS>SUBSTRUCTURE
     1 WQW         1 TEMP              0 ****  ****    0 ROOT
