@<TRIPOS>MOLECULE
WQW
   47    50     1     0     0
SMALL
abcg2


@<TRIPOS>ATOM
      1 N1         143.5040   178.9330   134.5180 ny         1 WQW      -0.822000
      2 N3         143.9750   176.8920   142.6570 nb         1 WQW      -0.727000
      3 C4         144.2080   177.6940   134.9510 c6         1 WQW       0.095100
      4 C5         143.5630   177.8370   138.6050 ca         1 WQW       0.254000
      5 C6         143.3080   178.7970   139.5580 ca         1 WQW      -0.121000
      6 C7         143.4390   178.4990   140.9300 ca         1 WQW      -0.072000
      7 C8         143.8520   177.2200   141.3530 ca         1 WQW       0.301000
      8 C10        143.9670   176.5450   139.0380 ca         1 WQW      -0.101000
      9 C13        143.7480   177.7760   143.5920 ca         1 WQW       0.609900
     10 C15        142.4760   176.4720   146.6630 c6         1 WQW       0.080600
     11 C17        144.6520   176.1630   145.1400 c6         1 WQW       0.201800
     12 C1         142.3270   179.2190   135.3840 c6         1 WQW       0.095100
     13 C11        143.2350   179.4650   141.9400 ca         1 WQW      -0.030000
     14 C12        143.4110   179.1240   143.2450 ca         1 WQW       0.048000
     15 C14        142.9090   177.7170   145.9160 c6         1 WQW       0.201800
     16 C16        144.9310   176.0310   146.6190 c6         1 WQW       0.080600
     17 C2         142.7500   179.2910   136.8350 c6         1 WQW       0.159800
     18 C3         144.5850   177.8060   136.4100 c6         1 WQW       0.159800
     19 C9         144.1180   176.2480   140.3620 ca         1 WQW      -0.056000
     20 N2         143.4100   178.0630   137.2300 nh         1 WQW      -0.779400
     21 N4         143.9130   177.3910   144.9040 nh         1 WQW      -0.791300
     22 N5         143.6440   175.8630   147.3740 ny         1 WQW      -0.826000
     23 CL1        143.3530   180.3650   144.4480 cl         1 WQW      -0.155000
     24 H1         144.1500   179.7270   134.5330 hn         1 WQW       0.509500
     25 H2         143.2040   178.8430   133.5450 hn         1 WQW       0.509500
     26 H9         143.5240   176.8650   134.7800 hx         1 WQW       0.113700
     27 H10        145.0890   177.5730   134.3250 hx         1 WQW       0.113700
     28 H11        143.0150   179.8020   139.2850 ha         1 WQW       0.122000
     29 H13        144.1400   175.7690   138.3030 ha         1 WQW       0.130000
     30 H18        142.0750   175.7180   145.9890 hx         1 WQW       0.112950
     31 H23        144.1340   175.2700   144.7710 h1         1 WQW       0.093700
     32 H24        145.6090   176.2070   144.6210 h1         1 WQW       0.093700
     33 H4         141.8920   180.1600   135.0570 hx         1 WQW       0.113700
     34 H3         141.6110   178.4160   135.2190 hx         1 WQW       0.113700
     35 H14        142.9850   180.4830   141.6680 ha         1 WQW       0.149000
     36 H16        143.2780   178.4600   146.6270 h1         1 WQW       0.093700
     37 H15        142.0120   178.1280   145.4550 h1         1 WQW       0.093700
     38 H22        145.5560   175.1670   146.8270 hx         1 WQW       0.112950
     39 H21        145.4210   176.9210   147.0070 hx         1 WQW       0.112950
     40 H5         143.3850   180.1760   136.9910 h1         1 WQW       0.081950
     41 H6         141.8430   179.4320   137.4230 h1         1 WQW       0.081950
     42 H8         145.0540   176.8670   136.6950 h1         1 WQW       0.081950
     43 H7         145.3410   178.5950   136.5420 h1         1 WQW       0.081950
     44 H12        144.4190   175.2560   140.6710 ha         1 WQW       0.146000
     45 H20        143.4580   174.8730   147.5370 hn         1 WQW       0.508500
     46 H19        143.7410   176.2770   148.3020 hn         1 WQW       0.508500
     47 H17        141.7200   176.7090   147.4080 hx         1 WQW       0.112950
@<TRIPOS>BOND
     1     1     3 1   
     2     1    12 1   
     3     1    24 1   
     4     1    25 1   
     5     2     7 ar  
     6     2     9 ar  
     7     3    18 1   
     8     3    26 1   
     9     3    27 1   
    10     4     5 ar  
    11     4     8 ar  
    12     4    20 1   
    13     5     6 ar  
    14     5    28 1   
    15     6     7 ar  
    16     6    13 ar  
    17     7    19 ar  
    18     8    19 ar  
    19     8    29 1   
    20     9    14 ar  
    21     9    21 1   
    22    10    15 1   
    23    10    22 1   
    24    10    30 1   
    25    10    47 1   
    26    11    16 1   
    27    11    21 1   
    28    11    31 1   
    29    11    32 1   
    30    12    17 1   
    31    12    33 1   
    32    12    34 1   
    33    13    14 ar  
    34    13    35 1   
    35    14    23 1   
    36    15    21 1   
    37    15    36 1   
    38    15    37 1   
    39    16    22 1   
    40    16    38 1   
    41    16    39 1   
    42    17    20 1   
    43    17    40 1   
    44    17    41 1   
    45    18    20 1   
    46    18    42 1   
    47    18    43 1   
    48    19    44 1   
    49    22    45 1   
    50    22    46 1   
@<TRIPOS>SUBSTRUCTURE
     1 WQW         1 TEMP              0 ****  ****    0 ROOT
