@<TRIPOS>MOLECULE
WQY
   22    23     1     0     0
SMALL
abcg2


@<TRIPOS>ATOM
      1 N1          -7.2970    15.2200    -0.2870 nb         1 WQY      -0.660000
      2 C4          -3.8880    14.8160     1.0780 ca         1 WQY      -0.090000
      3 C5          -3.1570    14.9640    -0.0710 ca         1 WQY      -0.109000
      4 C6          -3.8040    15.1990    -1.3020 ca         1 WQY      -0.104000
      5 C7          -5.1700    15.2830    -1.3650 ca         1 WQY      -0.082000
      6 C8          -5.9470    15.1350    -0.1940 ca         1 WQY       0.263000
      7 N           -7.7420    14.1860     4.4380 n8         1 WQY      -1.001200
      8 C1          -7.4620    14.8500     2.0920 ca         1 WQY      -0.145300
      9 C9          -8.0010    15.0800     0.8010 ca         1 WQY       0.352900
     10 C3          -5.2980    14.8990     1.0420 ca         1 WQY      -0.083000
     11 C2          -6.1030    14.7570     2.1960 ca         1 WQY      -0.043000
     12 H1          -3.3940    14.6330     2.0240 ha         1 WQY       0.116000
     13 H2          -2.0770    14.9020    -0.0380 ha         1 WQY       0.114000
     14 H3          -3.2130    15.3150    -2.2010 ha         1 WQY       0.115000
     15 H4          -5.6760    15.4640    -2.3040 ha         1 WQY       0.130000
     16 H5          -8.3630    14.2640     5.2320 hn         1 WQY       0.399000
     17 H6          -7.5760    13.1950     4.3100 hn         1 WQY       0.399000
     18 H8          -8.7660    15.7280     3.5140 h1         1 WQY       0.037700
     19 H9          -9.2810    14.1610     2.9420 h1         1 WQY       0.037700
     20 H10         -9.0800    15.1430     0.6900 h4         1 WQY       0.013100
     21 H11         -5.6360    14.5710     3.1550 ha         1 WQY       0.136000
     22 C           -8.3960    14.7280     3.2650 c3         1 WQY       0.203100
@<TRIPOS>BOND
     1     1     6 ar  
     2     1     9 ar  
     3     2     3 ar  
     4     2    10 ar  
     5     2    12 1   
     6     3     4 ar  
     7     3    13 1   
     8     4     5 ar  
     9     4    14 1   
    10     5     6 ar  
    11     5    15 1   
    12     6    10 ar  
    13     7    16 1   
    14     7    17 1   
    15     7    22 1   
    16     8     9 ar  
    17     8    11 ar  
    18     8    22 1   
    19     9    20 1   
    20    10    11 ar  
    21    11    21 1   
    22    18    22 1   
    23    19    22 1   
@<TRIPOS>SUBSTRUCTURE
     1 WQY         1 TEMP              0 ****  ****    0 ROOT
