@<TRIPOS>MOLECULE
WQY
   22    23     1     0     0
SMALL
No Charge or Current Charge


@<TRIPOS>ATOM
      1 N1          -7.3000    14.9680    -0.2610 nb         1 WQY      -0.660000
      2 C4          -3.8550    15.0750     1.0870 ca         1 WQY      -0.090000
      3 C5          -3.1180    15.1080    -0.1080 ca         1 WQY      -0.109000
      4 C6          -3.7850    15.0930    -1.3420 ca         1 WQY      -0.104000
      5 C7          -5.1910    15.0460    -1.3820 ca         1 WQY      -0.082000
      6 C8          -5.9480    15.0120    -0.1950 ca         1 WQY       0.263000
      7 N           -8.0160    13.7070     4.2160 n8         1 WQY      -1.001200
      8 C1          -7.4050    14.9450     2.1660 ca         1 WQY      -0.145300
      9 C9          -8.0050    14.9370     0.8940 ca         1 WQY       0.352900
     10 C3          -5.2620    15.0270     1.0470 ca         1 WQY      -0.083000
     11 C2          -6.0020    14.9950     2.2420 ca         1 WQY      -0.043000
     12 H1          -3.3320    15.0870     2.0420 ha         1 WQY       0.116000
     13 H2          -2.0310    15.1440    -0.0760 ha         1 WQY       0.114000
     14 H3          -3.2160    15.1180    -2.2690 ha         1 WQY       0.115000
     15 H4          -5.7000    15.0350    -2.3410 ha         1 WQY       0.130000
     16 H5          -8.6610    13.6990     5.0170 hn         1 WQY       0.399000
     17 H6          -8.3050    12.8900     3.6660 hn         1 WQY       0.399000
     18 H8          -8.0230    15.8030     4.0380 h1         1 WQY       0.037700
     19 H9          -9.3240    14.9690     3.1550 h1         1 WQY       0.037700
     20 H10         -9.0900    14.9050     0.7910 h4         1 WQY       0.013100
     21 H11         -5.5020    15.0060     3.2090 ha         1 WQY       0.136000
     22 C           -8.2580    14.9240     3.4210 c3         1 WQY       0.203100
@<TRIPOS>BOND
     1     1     6 ar  
     2     1     9 ar  
     3     2     3 ar  
     4     2    10 ar  
     5     2    12 1   
     6     3     4 ar  
     7     3    13 1   
     8     4     5 ar  
     9     4    14 1   
    10     5     6 ar  
    11     5    15 1   
    12     6    10 ar  
    13     7    16 1   
    14     7    17 1   
    15     7    22 1   
    16     8     9 ar  
    17     8    11 ar  
    18     8    22 1   
    19     9    20 1   
    20    10    11 ar  
    21    11    21 1   
    22    18    22 1   
    23    19    22 1   
@<TRIPOS>SUBSTRUCTURE
     1 WQY         1 TEMP              0 ****  ****    0 ROOT
