@<TRIPOS>MOLECULE
WQZ
   63    66     1     0     0
SMALL
No Charge or Current Charge


@<TRIPOS>ATOM
      1 N1         -35.4680   -31.2450   -69.6030 n3         1 WQZ      -0.717600
      2 N3         -44.9630   -31.0000   -71.2170 n1         1 WQZ      -0.456000
      3 C4         -35.3860   -32.5330   -68.8480 c6         1 WQZ       0.133800
      4 C5         -34.5780   -30.1700   -69.0130 c6         1 WQZ       0.173500
      5 C6         -34.5780   -28.8150   -69.8250 c3         1 WQZ       0.156600
      6 C7         -36.8870   -30.8390   -69.8420 c3         1 WQZ       0.224100
      7 C8         -37.7100   -30.6010   -68.5710 ca         1 WQZ      -0.118300
      8 C10        -39.2200   -31.4610   -66.8390 ca         1 WQZ      -0.122300
      9 C13        -42.8350   -31.9550   -68.5640 ca         1 WQZ      -0.152000
     10 C17        -43.6780   -30.1180   -66.5930 ca         1 WQZ       0.013200
     11 C20        -44.6360   -27.1100   -63.7280 c6         1 WQZ       0.109600
     12 C21        -45.3660   -27.1100   -65.0910 c6         1 WQZ       0.116600
     13 C22        -42.6600   -31.0550   -66.3160 ca         1 WQZ      -0.152000
     14 C24        -38.5340   -29.1220   -66.8110 ca         1 WQZ      -0.106000
     15 C1         -33.1000   -30.6850   -68.8520 c6         1 WQZ       0.130300
     16 C11        -40.0100   -32.6180   -66.2360 c3         1 WQZ       0.261100
     17 C12        -42.2340   -31.9660   -67.2980 ca         1 WQZ       0.314000
     18 C14        -43.8490   -31.0270   -68.8600 ca         1 WQZ       0.021000
     19 C16        -44.2640   -30.1110   -67.8750 ca         1 WQZ      -0.097000
     20 C18        -44.1280   -29.1410   -65.5520 ce         1 WQZ       0.021900
     21 C19        -44.0600   -29.3870   -64.2180 c2         1 WQZ      -0.089900
     22 C2         -33.0510   -32.0070   -68.0350 c6         1 WQZ       0.175300
     23 C23        -39.2550   -30.1850   -66.2440 ca         1 WQZ      -0.100000
     24 C25        -37.7680   -29.3270   -67.9700 ca         1 WQZ      -0.099000
     25 C3         -33.9400   -33.0880   -68.7190 c6         1 WQZ       0.171300
     26 C9         -38.4490   -31.6600   -68.0020 ca         1 WQZ      -0.091000
     27 N2         -41.2200   -32.8870   -67.0340 nu         1 WQZ      -0.960200
     28 O1         -32.2340   -29.7060   -68.2210 oh         1 WQZ      -0.737000
     29 O2         -31.6760   -32.4250   -67.9170 oh         1 WQZ      -0.647000
     30 O3         -33.9460   -34.3250   -67.9680 oh         1 WQZ      -0.706000
     31 O4         -34.0090   -28.9290   -71.1440 oh         1 WQZ      -0.655000
     32 O5         -44.4640   -28.4710   -63.2740 os         1 WQZ      -0.331100
     33 O6         -44.6680   -27.9570   -66.0360 os         1 WQZ      -0.337100
     34 H5         -36.0050   -33.2940   -69.3470 h1         1 WQZ       0.042200
     35 H6         -35.7940   -32.4020   -67.8350 h1         1 WQZ       0.042200
     36 H7         -34.9490   -29.9270   -68.0060 h1         1 WQZ       0.046700
     37 H8         -34.0190   -28.0670   -69.2470 h1         1 WQZ       0.025700
     38 H9         -35.6010   -28.4300   -69.8960 h1         1 WQZ       0.025700
     39 H10        -36.9410   -29.9460   -70.4760 h1         1 WQZ       0.066200
     40 H11        -37.3890   -31.6270   -70.4210 h1         1 WQZ       0.066200
     41 H15        -43.6480   -26.6410   -63.8410 h1         1 WQZ       0.067700
     42 H16        -45.2060   -26.5420   -62.9790 h1         1 WQZ       0.067700
     43 H17        -45.4370   -26.0910   -65.4960 h1         1 WQZ       0.067700
     44 H18        -46.3860   -27.4970   -64.9540 h1         1 WQZ       0.067700
     45 H19        -42.1900   -31.0700   -65.3400 ha         1 WQZ       0.121000
     46 H20        -38.5720   -28.1370   -66.3520 ha         1 WQZ       0.116000
     47 H21        -32.7230   -30.9140   -69.8610 h1         1 WQZ       0.073700
     48 H22        -40.2780   -32.3820   -65.1960 h1         1 WQZ       0.061200
     49 H23        -39.3710   -33.5120   -66.2070 h1         1 WQZ       0.061200
     50 H24        -45.0510   -29.3960   -68.1060 ha         1 WQZ       0.140000
     51 H27        -43.6870   -30.3240   -63.8010 h4         1 WQZ       0.225000
     52 H28        -33.4640   -31.8040   -67.0360 h1         1 WQZ       0.054700
     53 H29        -39.8460   -30.0150   -65.3470 ha         1 WQZ       0.113000
     54 H30        -37.2250   -28.4900   -68.3990 ha         1 WQZ       0.110000
     55 H31        -33.5480   -33.2640   -69.7320 h1         1 WQZ       0.059700
     56 H32        -38.4240   -32.6430   -68.4650 ha         1 WQZ       0.109000
     57 H33        -41.0990   -33.5900   -67.7640 hn         1 WQZ       0.475000
     58 H34        -32.0490   -29.0120   -68.8970 ho         1 WQZ       0.510000
     59 H35        -31.1850   -31.5810   -67.7880 ho         1 WQZ       0.452000
     60 H36        -34.2440   -35.0320   -68.5840 ho         1 WQZ       0.499000
     61 H37        -34.1810   -28.0790   -71.6060 ho         1 WQZ       0.438000
     62 H12        -42.5070   -32.6620   -69.3220 ha         1 WQZ       0.123000
     63 C15        -44.4590   -31.0120   -70.1630 cg         1 WQZ       0.325000
@<TRIPOS>BOND
     1     1     3 1   
     2     1     4 1   
     3     1     6 1   
     4     2    63 3   
     5     3    25 1   
     6     3    34 1   
     7     3    35 1   
     8     4     5 1   
     9     4    15 1   
    10     4    36 1   
    11     5    31 1   
    12     5    37 1   
    13     5    38 1   
    14     6     7 1   
    15     6    39 1   
    16     6    40 1   
    17     7    24 ar  
    18     7    26 ar  
    19     8    16 1   
    20     8    23 ar  
    21     8    26 ar  
    22     9    17 ar  
    23     9    18 ar  
    24     9    62 1   
    25    10    13 ar  
    26    10    19 ar  
    27    10    20 1   
    28    11    12 1   
    29    11    32 1   
    30    11    41 1   
    31    11    42 1   
    32    12    33 1   
    33    12    43 1   
    34    12    44 1   
    35    13    17 ar  
    36    13    45 1   
    37    14    23 ar  
    38    14    24 ar  
    39    14    46 1   
    40    15    22 1   
    41    15    28 1   
    42    15    47 1   
    43    16    27 1   
    44    16    48 1   
    45    16    49 1   
    46    17    27 1   
    47    18    19 ar  
    48    18    63 1   
    49    19    50 1   
    50    20    21 2   
    51    20    33 1   
    52    21    32 1   
    53    21    51 1   
    54    22    25 1   
    55    22    29 1   
    56    22    52 1   
    57    23    53 1   
    58    24    54 1   
    59    25    30 1   
    60    25    55 1   
    61    26    56 1   
    62    27    57 1   
    63    28    58 1   
    64    29    59 1   
    65    30    60 1   
    66    31    61 1   
@<TRIPOS>SUBSTRUCTURE
     1 WQZ         1 TEMP              0 ****  ****    0 ROOT
