@<TRIPOS>MOLECULE
WQZ
   63    66     1     0     0
SMALL
abcg2


@<TRIPOS>ATOM
      1 N1         -36.1330   -30.6000   -69.1690 n3         1 WQZ      -0.717600
      2 N3         -44.2380   -32.5840   -71.2090 n1         1 WQZ      -0.456000
      3 C4         -36.1830   -32.0490   -69.0190 c6         1 WQZ       0.133800
      4 C5         -34.9160   -30.0280   -68.5860 c6         1 WQZ       0.173500
      5 C6         -34.8340   -28.5140   -68.7310 c3         1 WQZ       0.156600
      6 C7         -37.4040   -29.9680   -68.7800 c3         1 WQZ       0.224100
      7 C8         -37.8430   -30.1970   -67.3450 ca         1 WQZ      -0.118300
      8 C10        -39.0730   -31.5500   -65.7370 ca         1 WQZ      -0.122300
      9 C13        -42.3010   -32.7350   -68.3250 ca         1 WQZ      -0.152000
     10 C17        -43.1250   -30.3510   -67.0910 ca         1 WQZ       0.013200
     11 C20        -44.1050   -26.6390   -65.4650 c6         1 WQZ       0.109600
     12 C21        -44.8910   -27.1860   -66.6370 c6         1 WQZ       0.116600
     13 C22        -42.1570   -31.1680   -66.4980 ca         1 WQZ      -0.152000
     14 C24        -37.8500   -29.6050   -65.0000 ca         1 WQZ      -0.106000
     15 C1         -33.6980   -30.6810   -69.2650 c6         1 WQZ       0.130300
     16 C11        -39.9570   -32.7420   -65.4160 c3         1 WQZ       0.261100
     17 C12        -41.7440   -32.3680   -67.0900 ca         1 WQZ       0.314000
     18 C14        -43.2480   -31.9080   -68.9210 ca         1 WQZ       0.021000
     19 C16        -43.6730   -30.7170   -68.3220 ca         1 WQZ      -0.097000
     20 C18        -43.5610   -29.1080   -66.4470 ce         1 WQZ       0.021900
     21 C19        -43.4650   -28.8650   -65.1280 c2         1 WQZ      -0.089900
     22 C2         -33.7190   -32.1990   -69.1720 c6         1 WQZ       0.175300
     23 C23        -38.6600   -30.6970   -64.7150 ca         1 WQZ      -0.100000
     24 C25        -37.4460   -29.3530   -66.3080 ca         1 WQZ      -0.099000
     25 C3         -35.0190   -32.7330   -69.7260 c6         1 WQZ       0.171300
     26 C9         -38.6590   -31.2870   -67.0390 ca         1 WQZ      -0.091000
     27 N2         -40.8130   -33.1900   -66.4970 nu         1 WQZ      -0.960200
     28 O1         -32.4720   -30.2670   -68.6520 oh         1 WQZ      -0.737000
     29 O2         -32.6210   -32.7550   -69.8900 oh         1 WQZ      -0.647000
     30 O3         -35.0560   -34.1440   -69.5070 oh         1 WQZ      -0.706000
     31 O4         -34.9190   -28.1500   -70.1110 oh         1 WQZ      -0.655000
     32 O5         -43.8280   -27.6940   -64.5320 os         1 WQZ      -0.331100
     33 O6         -44.1260   -28.1930   -67.3080 os         1 WQZ      -0.337100
     34 H5         -37.1180   -32.4080   -69.4540 h1         1 WQZ       0.042200
     35 H6         -36.1720   -32.3640   -67.9640 h1         1 WQZ       0.042200
     36 H7         -34.8440   -30.2400   -67.5050 h1         1 WQZ       0.046700
     37 H8         -33.8830   -28.1880   -68.3020 h1         1 WQZ       0.025700
     38 H9         -35.6270   -28.0260   -68.1630 h1         1 WQZ       0.025700
     39 H10        -37.3380   -28.9030   -68.9890 h1         1 WQZ       0.066200
     40 H11        -38.1670   -30.3780   -69.4450 h1         1 WQZ       0.066200
     41 H15        -43.1600   -26.2120   -65.8100 h1         1 WQZ       0.067700
     42 H16        -44.6730   -25.8830   -64.9260 h1         1 WQZ       0.067700
     43 H17        -45.0960   -26.4070   -67.3680 h1         1 WQZ       0.067700
     44 H18        -45.8330   -27.6210   -66.2900 h1         1 WQZ       0.067700
     45 H19        -41.6950   -30.8490   -65.5770 ha         1 WQZ       0.121000
     46 H20        -37.5440   -28.9370   -64.2040 ha         1 WQZ       0.116000
     47 H21        -33.6950   -30.3990   -70.3200 h1         1 WQZ       0.073700
     48 H22        -40.5640   -32.5070   -64.5370 h1         1 WQZ       0.061200
     49 H23        -39.3340   -33.5950   -65.1390 h1         1 WQZ       0.061200
     50 H24        -44.4120   -30.0970   -68.8040 ha         1 WQZ       0.140000
     51 H27        -43.1040   -29.6000   -64.4270 h4         1 WQZ       0.225000
     52 H28        -33.6520   -32.4830   -68.1120 h1         1 WQZ       0.054700
     53 H29        -38.9900   -30.8790   -63.6980 ha         1 WQZ       0.113000
     54 H30        -36.8360   -28.4840   -66.5160 ha         1 WQZ       0.110000
     55 H31        -35.0610   -32.5170   -70.8000 h1         1 WQZ       0.059700
     56 H32        -38.9930   -31.9320   -67.8420 ha         1 WQZ       0.109000
     57 H33        -40.4250   -33.9030   -67.0940 hn         1 WQZ       0.475000
     58 H34        -32.1330   -29.4930   -69.1160 ho         1 WQZ       0.510000
     59 H35        -31.8360   -32.2660   -69.6060 ho         1 WQZ       0.452000
     60 H36        -35.8400   -34.4950   -69.9480 ho         1 WQZ       0.499000
     61 H37        -34.7640   -27.2010   -70.1800 ho         1 WQZ       0.438000
     62 H12        -41.9820   -33.6450   -68.8160 ha         1 WQZ       0.123000
     63 C15        -43.7970   -32.2830   -70.1860 cg         1 WQZ       0.325000
@<TRIPOS>BOND
     1     1     3 1   
     2     1     4 1   
     3     1     6 1   
     4     2    63 3   
     5     3    25 1   
     6     3    34 1   
     7     3    35 1   
     8     4     5 1   
     9     4    15 1   
    10     4    36 1   
    11     5    31 1   
    12     5    37 1   
    13     5    38 1   
    14     6     7 1   
    15     6    39 1   
    16     6    40 1   
    17     7    24 ar  
    18     7    26 ar  
    19     8    16 1   
    20     8    23 ar  
    21     8    26 ar  
    22     9    17 ar  
    23     9    18 ar  
    24     9    62 1   
    25    10    13 ar  
    26    10    19 ar  
    27    10    20 1   
    28    11    12 1   
    29    11    32 1   
    30    11    41 1   
    31    11    42 1   
    32    12    33 1   
    33    12    43 1   
    34    12    44 1   
    35    13    17 ar  
    36    13    45 1   
    37    14    23 ar  
    38    14    24 ar  
    39    14    46 1   
    40    15    22 1   
    41    15    28 1   
    42    15    47 1   
    43    16    27 1   
    44    16    48 1   
    45    16    49 1   
    46    17    27 1   
    47    18    19 ar  
    48    18    63 1   
    49    19    50 1   
    50    20    21 2   
    51    20    33 1   
    52    21    32 1   
    53    21    51 1   
    54    22    25 1   
    55    22    29 1   
    56    22    52 1   
    57    23    53 1   
    58    24    54 1   
    59    25    30 1   
    60    25    55 1   
    61    26    56 1   
    62    27    57 1   
    63    28    58 1   
    64    29    59 1   
    65    30    60 1   
    66    31    61 1   
@<TRIPOS>SUBSTRUCTURE
     1 WQZ         1 TEMP              0 ****  ****    0 ROOT
