@<TRIPOS>MOLECULE
WR1
   55    56     1     0     0
SMALL
No Charge or Current Charge


@<TRIPOS>ATOM
      1 O4          -4.2180    -0.3070    -4.4240 o          1 WR1      -0.533000
      2 C15         -4.1560     0.2140    -3.3220 c          1 WR1       0.638100
      3 O5          -5.1990     0.4020    -2.4700 os         1 WR1      -0.455100
      4 C16         -6.5010    -0.0050    -2.9200 c3         1 WR1       0.231900
      5 C17         -7.5110     0.3260    -1.8290 ca         1 WR1      -0.100300
      6 C18         -7.8580    -0.6400    -0.8630 ca         1 WR1      -0.084000
      7 C19         -8.7910    -0.3320     0.1430 ca         1 WR1      -0.117000
      8 C20         -9.3830     0.9410     0.1890 ca         1 WR1      -0.099000
      9 C21         -9.0390     1.9090    -0.7700 ca         1 WR1      -0.117000
     10 C22         -8.1050     1.6030    -1.7760 ca         1 WR1      -0.084000
     11 N2          -3.0150     0.6710    -2.7260 ns         1 WR1      -0.474900
     12 C7          -1.6770     0.7030    -3.3580 c3         1 WR1       0.056700
     13 C8          -1.4140     2.0710    -4.0430 c3         1 WR1      -0.040100
     14 C9          -2.4680     2.4450    -5.0800 ca         1 WR1      -0.083300
     15 C10         -2.4060     1.9050    -6.3800 ca         1 WR1      -0.102500
     16 C11         -3.3820     2.2410    -7.3350 ca         1 WR1      -0.106000
     17 C12         -4.4260     3.1180    -6.9960 ca         1 WR1      -0.106000
     18 C13         -4.4930     3.6600    -5.7010 ca         1 WR1      -0.106000
     19 C14         -3.5160     3.3260    -4.7470 ca         1 WR1      -0.102500
     20 C6          -0.5740     0.3790    -2.3100 c          1 WR1       0.582100
     21 O3          -0.7780     0.3730    -1.1010 o          1 WR1      -0.604100
     22 N1           0.6680     0.0850    -2.8380 ns         1 WR1      -0.488900
     23 C4           1.8810    -0.2230    -2.0460 c3         1 WR1       0.014700
     24 C5           2.4850     1.0620    -1.4340 c3         1 WR1      -0.103100
     25 C3           2.9100    -1.0250    -2.9010 c          1 WR1       0.573100
     26 O2           2.7960    -1.1320    -4.1190 o          1 WR1      -0.489100
     27 C2           4.0160    -1.7710    -2.1460 c3         1 WR1      -0.183400
     28 C1           5.4200    -1.2940    -2.5490 c3         1 WR1       0.173600
     29 O1           5.5900     0.0770    -2.1870 oh         1 WR1      -0.665000
     30 H161        -6.5220    -1.0830    -3.1280 h1         1 WR1       0.057700
     31 H162        -6.7750     0.5220    -3.8440 h1         1 WR1       0.057700
     32 H18         -7.4030    -1.6280    -0.8900 ha         1 WR1       0.116000
     33 H19         -9.0550    -1.0820     0.8860 ha         1 WR1       0.113500
     34 H20        -10.1050     1.1790     0.9670 ha         1 WR1       0.112000
     35 H21         -9.4950     2.8960    -0.7350 ha         1 WR1       0.113500
     36 H22         -7.8420     2.3580    -2.5140 ha         1 WR1       0.116000
     37 HN2         -3.1190     1.0300    -1.7860 hn         1 WR1       0.332500
     38 H7          -1.6310    -0.0860    -4.1200 h1         1 WR1       0.082700
     39 H81         -0.4260     2.0540    -4.5190 hc         1 WR1       0.061200
     40 H82         -1.3570     2.8480    -3.2700 hc         1 WR1       0.061200
     41 H10         -1.6040     1.2220    -6.6490 ha         1 WR1       0.108500
     42 H11         -3.3290     1.8190    -8.3360 ha         1 WR1       0.114000
     43 H12         -5.1810     3.3760    -7.7340 ha         1 WR1       0.114000
     44 H13         -5.3010     4.3380    -5.4370 ha         1 WR1       0.114000
     45 H14         -3.5790     3.7470    -3.7460 ha         1 WR1       0.108500
     46 HN1          0.7480     0.0860    -3.8500 hn         1 WR1       0.324500
     47 H4           1.5850    -0.8850    -1.2210 h1         1 WR1       0.068700
     48 H51          3.3240     0.8230    -0.7710 hc         1 WR1       0.051367
     49 H52          1.7370     1.6020    -0.8410 hc         1 WR1       0.051367
     50 H53          2.8470     1.7340    -2.2220 hc         1 WR1       0.051367
     51 H21A         3.9390    -2.8350    -2.3950 hc         1 WR1       0.071200
     52 H22A         3.8850    -1.6510    -1.0640 hc         1 WR1       0.071200
     53 H11A         6.1680    -1.9160    -2.0380 h1         1 WR1       0.028700
     54 H12A         5.5580    -1.4260    -3.6300 h1         1 WR1       0.028700
     55 HO1          6.5130     0.3230    -2.4200 ho         1 WR1       0.445000
@<TRIPOS>BOND
     1     1     2 2   
     2     2     3 1   
     3     2    11 1   
     4     3     4 1   
     5     4     5 1   
     6     4    30 1   
     7     4    31 1   
     8     5     6 ar  
     9     5    10 ar  
    10     6     7 ar  
    11     6    32 1   
    12     7     8 ar  
    13     7    33 1   
    14     8     9 ar  
    15     8    34 1   
    16     9    10 ar  
    17     9    35 1   
    18    10    36 1   
    19    11    12 1   
    20    11    37 1   
    21    12    13 1   
    22    12    20 1   
    23    12    38 1   
    24    13    14 1   
    25    13    39 1   
    26    13    40 1   
    27    14    15 ar  
    28    14    19 ar  
    29    15    16 ar  
    30    15    41 1   
    31    16    17 ar  
    32    16    42 1   
    33    17    18 ar  
    34    17    43 1   
    35    18    19 ar  
    36    18    44 1   
    37    19    45 1   
    38    20    21 2   
    39    20    22 1   
    40    22    23 1   
    41    22    46 1   
    42    23    24 1   
    43    23    25 1   
    44    23    47 1   
    45    24    48 1   
    46    24    49 1   
    47    24    50 1   
    48    25    26 2   
    49    25    27 1   
    50    27    28 1   
    51    27    51 1   
    52    27    52 1   
    53    28    29 1   
    54    28    53 1   
    55    28    54 1   
    56    29    55 1   
@<TRIPOS>SUBSTRUCTURE
     1 WR1         1 TEMP              0 ****  ****    0 ROOT
