@<TRIPOS>MOLECULE
WR1
   55    56     1     0     0
SMALL
abcg2


@<TRIPOS>ATOM
      1 O4          -2.7840    -0.7590    -3.8170 o          1 WR1      -0.533000
      2 C15         -3.3520     0.1720    -3.2870 c          1 WR1       0.638100
      3 O5          -4.4850     0.0690    -2.5890 os         1 WR1      -0.455100
      4 C16         -5.0580    -1.2390    -2.4640 c3         1 WR1       0.231900
      5 C17         -6.2740    -1.0970    -1.6010 ca         1 WR1      -0.100300
      6 C18         -6.1710    -1.2080    -0.2170 ca         1 WR1      -0.084000
      7 C19         -7.2900    -1.0470     0.5880 ca         1 WR1      -0.117000
      8 C20         -8.5250    -0.7730     0.0150 ca         1 WR1      -0.099000
      9 C21         -8.6370    -0.6620    -1.3650 ca         1 WR1      -0.117000
     10 C22         -7.5150    -0.8230    -2.1670 ca         1 WR1      -0.084000
     11 N2          -2.9320     1.4530    -3.3440 ns         1 WR1      -0.474900
     12 C7          -1.6470     1.7700    -3.8970 c3         1 WR1       0.056700
     13 C8          -1.4840     3.2950    -3.9930 c3         1 WR1      -0.040100
     14 C9          -2.4890     3.9200    -4.9200 ca         1 WR1      -0.083300
     15 C10         -2.3150     3.8390    -6.3010 ca         1 WR1      -0.102500
     16 C11         -3.2490     4.3880    -7.1670 ca         1 WR1      -0.106000
     17 C12         -4.3740     5.0300    -6.6640 ca         1 WR1      -0.106000
     18 C13         -4.5540     5.1210    -5.2910 ca         1 WR1      -0.106000
     19 C14         -3.6160     4.5690    -4.4270 ca         1 WR1      -0.102500
     20 C6          -0.5170     1.2030    -3.0360 c          1 WR1       0.582100
     21 O3          -0.6280     1.0640    -1.8290 o          1 WR1      -0.604100
     22 N1           0.6200     0.9420    -3.6950 ns         1 WR1      -0.488900
     23 C4           1.8010     0.5120    -2.9950 c3         1 WR1       0.014700
     24 C5           2.9770     0.3970    -3.9600 c3         1 WR1      -0.103100
     25 C3           1.5950    -0.8400    -2.3200 c          1 WR1       0.573100
     26 O2           0.8690    -1.6790    -2.7920 o          1 WR1      -0.489100
     27 C2           2.3730    -1.0410    -1.0450 c3         1 WR1      -0.183400
     28 C1           2.7080    -2.4820    -0.7360 c3         1 WR1       0.173600
     29 O1           3.6000    -2.9430    -1.7260 oh         1 WR1      -0.665000
     30 H161        -4.3370    -1.9210    -2.0100 h1         1 WR1       0.057700
     31 H162        -5.3220    -1.6270    -3.4500 h1         1 WR1       0.057700
     32 H18         -5.2110    -1.4270     0.2340 ha         1 WR1       0.116000
     33 H19         -7.1990    -1.1380     1.6630 ha         1 WR1       0.113500
     34 H20         -9.3980    -0.6490     0.6420 ha         1 WR1       0.112000
     35 H21         -9.5970    -0.4510    -1.8170 ha         1 WR1       0.113500
     36 H22         -7.6080    -0.7400    -3.2440 ha         1 WR1       0.116000
     37 HN2         -3.3820     2.1310    -2.7480 hn         1 WR1       0.332500
     38 H7          -1.5750     1.3510    -4.9050 h1         1 WR1       0.082700
     39 H81         -0.4720     3.5100    -4.3400 hc         1 WR1       0.061200
     40 H82         -1.5700     3.7260    -2.9920 hc         1 WR1       0.061200
     41 H10         -1.4360     3.3490    -6.7030 ha         1 WR1       0.108500
     42 H11         -3.0950     4.3190    -8.2370 ha         1 WR1       0.114000
     43 H12         -5.1040     5.4600    -7.3390 ha         1 WR1       0.114000
     44 H13         -5.4250     5.6220    -4.8890 ha         1 WR1       0.114000
     45 H14         -3.7620     4.6570    -3.3560 ha         1 WR1       0.108500
     46 HN1          0.6420     1.0030    -4.7010 hn         1 WR1       0.324500
     47 H4           2.0530     1.2450    -2.2220 h1         1 WR1       0.068700
     48 H51          3.8730     0.0620    -3.4380 hc         1 WR1       0.051367
     49 H52          3.1950     1.3670    -4.4070 hc         1 WR1       0.051367
     50 H53          2.7610    -0.3160    -4.7560 hc         1 WR1       0.051367
     51 H21A         1.7510    -0.6270    -0.2430 hc         1 WR1       0.071200
     52 H22A         3.2770    -0.4270    -1.0530 hc         1 WR1       0.071200
     53 H11A         3.1540    -2.5310     0.2650 h1         1 WR1       0.028700
     54 H12A         1.7890    -3.0780    -0.7050 h1         1 WR1       0.028700
     55 HO1          3.7880    -3.8700    -1.5530 ho         1 WR1       0.445000
@<TRIPOS>BOND
     1     1     2 2   
     2     2     3 1   
     3     2    11 1   
     4     3     4 1   
     5     4     5 1   
     6     4    30 1   
     7     4    31 1   
     8     5     6 ar  
     9     5    10 ar  
    10     6     7 ar  
    11     6    32 1   
    12     7     8 ar  
    13     7    33 1   
    14     8     9 ar  
    15     8    34 1   
    16     9    10 ar  
    17     9    35 1   
    18    10    36 1   
    19    11    12 1   
    20    11    37 1   
    21    12    13 1   
    22    12    20 1   
    23    12    38 1   
    24    13    14 1   
    25    13    39 1   
    26    13    40 1   
    27    14    15 ar  
    28    14    19 ar  
    29    15    16 ar  
    30    15    41 1   
    31    16    17 ar  
    32    16    42 1   
    33    17    18 ar  
    34    17    43 1   
    35    18    19 ar  
    36    18    44 1   
    37    19    45 1   
    38    20    21 2   
    39    20    22 1   
    40    22    23 1   
    41    22    46 1   
    42    23    24 1   
    43    23    25 1   
    44    23    47 1   
    45    24    48 1   
    46    24    49 1   
    47    24    50 1   
    48    25    26 2   
    49    25    27 1   
    50    27    28 1   
    51    27    51 1   
    52    27    52 1   
    53    28    29 1   
    54    28    53 1   
    55    28    54 1   
    56    29    55 1   
@<TRIPOS>SUBSTRUCTURE
     1 WR1         1 TEMP              0 ****  ****    0 ROOT
