@<TRIPOS>MOLECULE
WR2
   64    64     1     0     0
SMALL
bcc


@<TRIPOS>ATOM
      1 O            8.3410    10.3070    25.2450 o          1 WR2      -0.612100
      2 C            7.7320    10.0940    24.2040 c          1 WR2       0.650100
      3 NAQ          6.4130     9.8890    24.1650 ns         1 WR2      -0.565900
      4 CAA          5.5980     9.8470    25.3560 c3         1 WR2       0.093300
      5 CA           8.4520    10.0610    22.8570 c3         1 WR2       0.037700
      6 CB           9.1340     8.6960    22.5660 c3         1 WR2      -0.047000
      7 CAF         10.2600     8.3890    23.5540 c3         1 WR2      -0.087100
      8 CG2          9.7120     8.7480    21.1500 c3         1 WR2      -0.087100
      9 CG1          8.0850     7.5840    22.6230 c3         1 WR2      -0.087100
     10 N            9.3820    11.1660    22.8530 ns         1 WR2      -0.560900
     11 CAY          9.4100    12.1370    21.9230 c          1 WR2       0.667100
     12 OAJ          8.7620    12.1020    20.8870 o          1 WR2      -0.601100
     13 CBC         10.3100    13.3160    22.2600 c3         1 WR2      -0.128700
     14 CAO          9.4600    14.5910    22.3250 c3         1 WR2      -0.067400
     15 CBA          8.3020    14.5740    23.3240 c3         1 WR2      -0.061700
     16 CAB          8.7640    14.3120    24.7550 c3         1 WR2      -0.090100
     17 CAC          7.5430    15.8940    23.2390 c3         1 WR2      -0.090100
     18 CBB         11.4240    13.4480    21.2090 c3         1 WR2      -0.159700
     19 CAX         12.4010    14.5270    21.6410 c          1 WR2       0.674100
     20 OAI         13.0670    14.4370    22.6570 o          1 WR2      -0.581100
     21 NAR         12.4530    15.5730    20.8030 ns         1 WR2      -0.454400
     22 OAK         13.3770    16.5550    20.9770 oh         1 WR2      -0.379100
     23 CAN         12.2050    12.1400    21.0280 c3         1 WR2       0.113000
     24 NAS         13.4000    12.3040    20.2330 ns         1 WR2      -0.549900
     25 CAV         13.3670    12.4750    18.9090 c          1 WR2       0.592600
     26 OAG         12.3520    12.5090    18.2300 o          1 WR2      -0.604100
     27 CAZ         14.6940    12.6310    18.2650 cc         1 WR2       0.331900
     28 NAP         15.8400    12.6220    18.8680 nd         1 WR2      -0.627000
     29 CAL         16.8550    12.7920    17.9800 cd         1 WR2       0.341200
     30 CAM         16.4680    12.9310    16.6800 cc         1 WR2      -0.226400
     31 SAU         14.7680    12.8470    16.5630 ss         1 WR2      -0.044300
     32 HAQ          5.9670     9.7300    23.2770 hn         1 WR2       0.320500
     33 HA           7.7320    10.2390    22.0550 h1         1 WR2       0.082700
     34 HAA1         5.8710     9.0150    26.0050 h1         1 WR2       0.042033
     35 HAA2         5.6820    10.7710    25.9280 h1         1 WR2       0.042033
     36 HAA3         4.5610     9.7230    25.0570 h1         1 WR2       0.042033
     37 H            9.9160    11.3000    23.6980 hn         1 WR2       0.332500
     38 HAF1        11.0310     9.1610    23.5480 hc         1 WR2       0.039256
     39 HAF2         9.8980     8.2790    24.5760 hc         1 WR2       0.039256
     40 HAF3        10.7420     7.4510    23.2740 hc         1 WR2       0.039256
     41 HG21         8.9410     8.9690    20.4090 hc         1 WR2       0.039256
     42 HG22        10.4940     9.5010    21.0580 hc         1 WR2       0.039256
     43 HG23        10.1560     7.7850    20.8920 hc         1 WR2       0.039256
     44 HG11         7.2530     7.7850    21.9450 hc         1 WR2       0.039256
     45 HG12         8.5310     6.6360    22.3190 hc         1 WR2       0.039256
     46 HG13         7.6790     7.4410    23.6250 hc         1 WR2       0.039256
     47 HBC         10.7830    13.1500    23.2330 hc         1 WR2       0.076700
     48 HAO1        10.1120    15.4360    22.5700 hc         1 WR2       0.050700
     49 HAO2         9.0650    14.7940    21.3240 hc         1 WR2       0.050700
     50 HBB         10.9670    13.7110    20.2510 hc         1 WR2       0.091700
     51 HBA          7.6040    13.7770    23.0420 hc         1 WR2       0.050700
     52 HAB1         9.5400    15.0190    25.0560 hc         1 WR2       0.035200
     53 HAB2         7.9320    14.4160    25.4520 hc         1 WR2       0.035200
     54 HAB3         9.1600    13.3040    24.8860 hc         1 WR2       0.035200
     55 HAC1         6.6750    15.8940    23.9010 hc         1 WR2       0.035200
     56 HAC2         8.1800    16.7330    23.5290 hc         1 WR2       0.035200
     57 HAC3         7.1860    16.0850    22.2250 hc         1 WR2       0.035200
     58 HAN1        12.5100    11.7410    21.9940 h1         1 WR2       0.068700
     59 HAN2        11.5600    11.3980    20.5530 h1         1 WR2       0.068700
     60 HAR         11.9590    15.5970    19.9230 hn         1 WR2       0.345500
     61 HAK         12.9430    17.2510    21.4880 ho         1 WR2       0.402000
     62 HAS         14.2970    12.2870    20.6930 hn         1 WR2       0.353500
     63 HAL         17.8780    12.8090    18.3250 h4         1 WR2       0.045100
     64 HAM         17.0920    13.0760    15.8130 h4         1 WR2       0.181000
@<TRIPOS>BOND
     1     1     2 2   
     2     2     3 1   
     3     2     5 1   
     4     3     4 1   
     5     3    32 1   
     6     4    34 1   
     7     4    35 1   
     8     4    36 1   
     9     5     6 1   
    10     5    10 1   
    11     5    33 1   
    12     6     7 1   
    13     6     8 1   
    14     6     9 1   
    15     7    38 1   
    16     7    39 1   
    17     7    40 1   
    18     8    41 1   
    19     8    42 1   
    20     8    43 1   
    21     9    44 1   
    22     9    45 1   
    23     9    46 1   
    24    10    11 1   
    25    10    37 1   
    26    11    12 2   
    27    11    13 1   
    28    13    14 1   
    29    13    18 1   
    30    13    47 1   
    31    14    15 1   
    32    14    48 1   
    33    14    49 1   
    34    15    16 1   
    35    15    17 1   
    36    15    51 1   
    37    16    52 1   
    38    16    53 1   
    39    16    54 1   
    40    17    55 1   
    41    17    56 1   
    42    17    57 1   
    43    18    19 1   
    44    18    23 1   
    45    18    50 1   
    46    19    20 2   
    47    19    21 1   
    48    21    22 1   
    49    21    60 1   
    50    22    61 1   
    51    23    24 1   
    52    23    58 1   
    53    23    59 1   
    54    24    25 1   
    55    24    62 1   
    56    25    26 2   
    57    25    27 1   
    58    27    28 2   
    59    27    31 1   
    60    28    29 1   
    61    29    30 2   
    62    29    63 1   
    63    30    31 1   
    64    30    64 1   
@<TRIPOS>SUBSTRUCTURE
     1 WR2         1 TEMP              0 ****  ****    0 ROOT
