@<TRIPOS>MOLECULE
WR2
   64    64     1     0     0
SMALL
No Charge or Current Charge


@<TRIPOS>ATOM
      1 O            8.1410    10.4490    25.3510 o          1 WR2      -0.612100
      2 C            7.6180    10.0370    24.3220 c          1 WR2       0.583100
      3 NAQ          6.3280     9.5470    24.3210 ns         1 WR2      -0.498900
      4 CAA          5.4860     9.4410    25.5140 c3         1 WR2       0.093300
      5 CA           8.3300    10.0710    22.9320 c3         1 WR2       0.037700
      6 CB           9.0640     8.7270    22.5570 c3         1 WR2      -0.047000
      7 CAF         10.2330     8.4320    23.5390 c3         1 WR2      -0.087100
      8 CG2          9.6380     8.8220    21.1170 c3         1 WR2      -0.087100
      9 CG1          8.0740     7.5290    22.5910 c3         1 WR2      -0.087100
     10 N            9.2550    11.2320    22.9150 ns         1 WR2      -0.493900
     11 CAY          9.3200    12.1870    21.9250 c          1 WR2       0.600100
     12 OAJ          8.6600    12.1100    20.8990 o          1 WR2      -0.601100
     13 CBC         10.2700    13.3710    22.2200 c3         1 WR2      -0.128700
     14 CAO          9.4690    14.7010    22.3760 c3         1 WR2      -0.067400
     15 CBA          8.3090    14.6800    23.4150 c3         1 WR2      -0.061700
     16 CAB          8.7950    14.3880    24.8560 c3         1 WR2      -0.090100
     17 CAC          7.5120    16.0040    23.3710 c3         1 WR2      -0.090100
     18 CBB         11.4150    13.4910    21.1540 c3         1 WR2      -0.159700
     19 CAX         12.4250    14.5990    21.5120 c          1 WR2       0.607100
     20 OAI         13.0920    14.5740    22.5390 o          1 WR2      -0.581100
     21 NAR         12.5130    15.6380    20.5910 ns         1 WR2      -0.387400
     22 OAK         13.5980    16.5960    20.6510 oh         1 WR2      -0.418100
     23 CAN         12.1520    12.1490    20.9020 c3         1 WR2       0.113000
     24 NAS         13.3720    12.2770    20.0950 ns         1 WR2      -0.482900
     25 CAV         13.4350    12.7020    18.7780 c          1 WR2       0.525600
     26 OAG         12.4270    13.0270    18.1600 o          1 WR2      -0.604100
     27 CAZ         14.8300    12.7200    18.2210 cc         1 WR2       0.331900
     28 NAP         15.9330    12.3630    18.8940 nd         1 WR2      -0.627000
     29 CAL         17.0500    12.5010    18.0830 cd         1 WR2       0.275900
     30 CAM         16.7870    12.9570    16.8140 cc         1 WR2      -0.288000
     31 SAU         15.0870    13.2400    16.5730 ss         1 WR2       0.100600
     32 HAQ          5.9510     9.2370    23.4330 hn         1 WR2       0.320500
     33 HA           7.5400    10.2480    22.1910 h1         1 WR2       0.082700
     34 HAA1         5.9710     8.7900    26.2520 h1         1 WR2       0.042033
     35 HAA2         5.3350    10.4380    25.9500 h1         1 WR2       0.042033
     36 HAA3         4.5120     9.0150    25.2400 h1         1 WR2       0.042033
     37 H            9.8100    11.3990    23.7460 hn         1 WR2       0.332500
     38 HAF1        10.9860     9.2290    23.5190 hc         1 WR2       0.039256
     39 HAF2         9.8730     8.3310    24.5700 hc         1 WR2       0.039256
     40 HAF3        10.7370     7.4950    23.2720 hc         1 WR2       0.039256
     41 HG21         8.8520     9.0770    20.3970 hc         1 WR2       0.039256
     42 HG22        10.4220     9.5820    21.0510 hc         1 WR2       0.039256
     43 HG23        10.0820     7.8680    20.8070 hc         1 WR2       0.039256
     44 HG11         7.2020     7.7210    21.9540 hc         1 WR2       0.039256
     45 HG12         8.5570     6.6130    22.2300 hc         1 WR2       0.039256
     46 HG13         7.7210     7.3260    23.6090 hc         1 WR2       0.039256
     47 HBC         10.7570    13.1700    23.1820 hc         1 WR2       0.076700
     48 HAO1        10.1560    15.5120    22.6470 hc         1 WR2       0.050700
     49 HAO2         9.0520    14.9680    21.3960 hc         1 WR2       0.050700
     50 HBB         10.9420    13.7710    20.2060 hc         1 WR2       0.091700
     51 HBA          7.6080    13.8840    23.1360 hc         1 WR2       0.050700
     52 HAB1         9.5450    15.1230    25.1720 hc         1 WR2       0.035200
     53 HAB2         7.9570    14.4300    25.5610 hc         1 WR2       0.035200
     54 HAB3         9.2370    13.3880    24.9340 hc         1 WR2       0.035200
     55 HAC1         6.6620    15.9690    24.0640 hc         1 WR2       0.035200
     56 HAC2         8.1470    16.8530    23.6490 hc         1 WR2       0.035200
     57 HAC3         7.1160    16.1850    22.3640 hc         1 WR2       0.035200
     58 HAN1        12.4300    11.7020    21.8660 h1         1 WR2       0.068700
     59 HAN2        11.4770    11.4510    20.3910 h1         1 WR2       0.068700
     60 HAR         12.0540    15.5360    19.6870 hn         1 WR2       0.345500
     61 HAK         13.1410    17.4680    20.5910 ho         1 WR2       0.441000
     62 HAS         14.2640    12.0260    20.5150 hn         1 WR2       0.353500
     63 HAL         18.0290    12.2540    18.4750 h4         1 WR2       0.045100
     64 HAM         17.4840    13.1430    16.0080 h4         1 WR2       0.163000
@<TRIPOS>BOND
     1     1     2 2   
     2     2     3 1   
     3     2     5 1   
     4     3     4 1   
     5     3    32 1   
     6     4    34 1   
     7     4    35 1   
     8     4    36 1   
     9     5     6 1   
    10     5    10 1   
    11     5    33 1   
    12     6     7 1   
    13     6     8 1   
    14     6     9 1   
    15     7    38 1   
    16     7    39 1   
    17     7    40 1   
    18     8    41 1   
    19     8    42 1   
    20     8    43 1   
    21     9    44 1   
    22     9    45 1   
    23     9    46 1   
    24    10    11 1   
    25    10    37 1   
    26    11    12 2   
    27    11    13 1   
    28    13    14 1   
    29    13    18 1   
    30    13    47 1   
    31    14    15 1   
    32    14    48 1   
    33    14    49 1   
    34    15    16 1   
    35    15    17 1   
    36    15    51 1   
    37    16    52 1   
    38    16    53 1   
    39    16    54 1   
    40    17    55 1   
    41    17    56 1   
    42    17    57 1   
    43    18    19 1   
    44    18    23 1   
    45    18    50 1   
    46    19    20 2   
    47    19    21 1   
    48    21    22 1   
    49    21    60 1   
    50    22    61 1   
    51    23    24 1   
    52    23    58 1   
    53    23    59 1   
    54    24    25 1   
    55    24    62 1   
    56    25    26 2   
    57    25    27 1   
    58    27    28 2   
    59    27    31 1   
    60    28    29 1   
    61    29    30 2   
    62    29    63 1   
    63    30    31 1   
    64    30    64 1   
@<TRIPOS>SUBSTRUCTURE
     1 WR2         1 TEMP              0 ****  ****    0 ROOT
