@<TRIPOS>MOLECULE
WR6
  129   128     1     0     0
SMALL
No Charge or Current Charge


@<TRIPOS>ATOM
      1 C10        155.9120   147.5320   168.4180 c3         1 WR6      -0.074400
      2 C11        154.8280   146.6400   169.0610 c3         1 WR6      -0.074400
      3 C15        150.1450   144.5440   168.5870 c3         1 WR6      -0.072400
      4 C17        148.0690   145.5650   167.3950 c3         1 WR6      -0.074400
      5 C18        146.7390   145.2960   166.6520 c3         1 WR6      -0.079400
      6 C19        146.9100   144.7590   165.2080 c3         1 WR6      -0.067400
      7 C20        145.5810   144.4800   164.4660 c3         1 WR6      -0.073400
      8 C21        144.7340   145.7390   164.1640 c3         1 WR6      -0.066400
      9 C22        143.4630   145.4260   163.3410 c3         1 WR6      -0.117400
     10 C23        142.6740   146.6940   162.9930 c          1 WR6       0.639100
     11 C01        166.5330   151.8770   170.2570 c3         1 WR6      -0.088100
     12 C02        165.2790   151.7210   169.3760 c3         1 WR6      -0.075400
     13 C03        164.1950   150.8300   170.0190 c3         1 WR6      -0.075400
     14 C04        162.9370   150.6740   169.1360 c3         1 WR6      -0.074400
     15 C05        161.8530   149.7820   169.7800 c3         1 WR6      -0.074400
     16 C06        160.5950   149.6270   168.8960 c3         1 WR6      -0.074400
     17 C07        159.5110   148.7350   169.5400 c3         1 WR6      -0.074400
     18 C08        158.2540   148.5800   168.6570 c3         1 WR6      -0.074400
     19 C09        157.1700   147.6880   169.3010 c3         1 WR6      -0.074400
     20 C12        153.5710   146.4850   168.1790 c3         1 WR6      -0.074400
     21 C13        152.4870   145.5920   168.8220 c3         1 WR6      -0.075400
     22 C14        151.2300   145.4370   167.9390 c3         1 WR6      -0.075400
     23 C16        148.9050   144.2950   167.6950 c3         1 WR6      -0.074400
     24 C26        140.5190   147.8140   163.4930 c3         1 WR6       0.134300
     25 C27        139.9050   147.6160   162.0740 c3         1 WR6       0.137600
     26 C29        137.5600   148.0400   162.5660 c          1 WR6       0.595100
     27 C31        136.4180   149.0250   162.3090 c3         1 WR6      -0.141400
     28 C32        135.5890   148.6130   161.0690 c3         1 WR6      -0.066400
     29 C33        134.4290   149.5870   160.7690 c3         1 WR6      -0.076400
     30 C34        133.6000   149.1770   159.5310 c3         1 WR6      -0.074400
     31 C35        132.4400   150.1510   159.2310 c3         1 WR6      -0.075400
     32 C36        131.6120   149.7410   157.9940 c3         1 WR6      -0.075400
     33 C37        130.4480   150.7170   157.6970 c3         1 WR6      -0.073400
     34 C38        129.6470   150.3890   156.4150 c3         1 WR6      -0.072400
     35 C39        128.8630   149.0570   156.4710 c3         1 WR6      -0.077400
     36 C40        128.0090   148.8090   155.2130 c3         1 WR6      -0.089100
     37 C41        141.0710   149.2530   163.7340 c3         1 WR6       0.208600
     38 C47        142.1420   152.3090   165.8760 c3         1 WR6       0.242600
     39 C48        141.6440   153.3730   164.8460 c3         1 WR6       0.159300
     40 C50        142.8070   154.1270   164.1360 c3         1 WR6       0.137600
     41 O24        142.9420   147.3990   162.0290 o          1 WR6      -0.518000
     42 O25        141.5240   146.7890   163.7450 os         1 WR6      -0.438100
     43 O28        138.7150   148.4270   161.9340 os         1 WR6      -0.451100
     44 O30        137.4270   146.9990   163.1940 o          1 WR6      -0.489000
     45 O42        141.2810   149.4510   165.1410 os         1 WR6      -0.595400
     46 O44        143.7880   148.8850   165.0870 o          1 WR6      -0.817000
     47 O45        142.7930   149.6840   167.2020 o          1 WR6      -0.817000
     48 O46        142.8960   151.2820   165.2070 os         1 WR6      -0.598400
     49 O49        140.7750   152.7730   163.8610 oh         1 WR6      -0.643000
     50 O51        143.6110   154.8570   165.0780 oh         1 WR6      -0.656000
     51 P43        142.7560   149.7600   165.7110 p5         1 WR6       1.403800
     52 H101       155.4890   148.5240   168.2160 hc         1 WR6       0.037700
     53 H102       156.2020   147.1050   167.4500 hc         1 WR6       0.037700
     54 H112       155.2510   145.6480   169.2630 hc         1 WR6       0.035200
     55 H111       154.5380   147.0680   170.0290 hc         1 WR6       0.035200
     56 H152       150.5900   143.5730   168.8350 hc         1 WR6       0.032700
     57 H151       149.8240   144.9920   169.5360 hc         1 WR6       0.032700
     58 H171       147.8370   146.0650   168.3440 hc         1 WR6       0.033700
     59 H172       148.6660   146.2710   166.8060 hc         1 WR6       0.033700
     60 H182       146.1350   144.5890   167.2350 hc         1 WR6       0.052700
     61 H181       146.1760   146.2360   166.6220 hc         1 WR6       0.052700
     62 H192       147.4780   143.8220   165.2380 hc         1 WR6       0.024700
     63 H191       147.5070   145.4700   164.6240 hc         1 WR6       0.024700
     64 H201       144.9830   143.7700   165.0520 hc         1 WR6       0.033200
     65 H202       145.8170   143.9800   163.5180 hc         1 WR6       0.033200
     66 H211       145.3490   146.4660   163.6180 hc         1 WR6       0.059200
     67 H212       144.4330   146.2140   165.1050 hc         1 WR6       0.059200
     68 H222       142.8360   144.7640   163.9500 hc         1 WR6       0.066200
     69 H221       143.7560   144.9270   162.4110 hc         1 WR6       0.066200
     70 H012       167.2730   152.5160   169.7600 hc         1 WR6       0.030367
     71 H011       166.2770   152.3340   171.2210 hc         1 WR6       0.030367
     72 H013       166.9970   150.9010   170.4480 hc         1 WR6       0.030367
     73 H022       164.8600   152.7150   169.1740 hc         1 WR6       0.036700
     74 H021       165.5730   151.2950   168.4090 hc         1 WR6       0.036700
     75 H031       164.6180   149.8370   170.2220 hc         1 WR6       0.036700
     76 H032       163.9040   151.2570   170.9870 hc         1 WR6       0.036700
     77 H042       162.5140   151.6660   168.9340 hc         1 WR6       0.036700
     78 H041       163.2280   150.2460   168.1680 hc         1 WR6       0.036700
     79 H051       162.2760   148.7900   169.9820 hc         1 WR6       0.036700
     80 H052       161.5620   150.2100   170.7470 hc         1 WR6       0.036700
     81 H061       160.1720   150.6190   168.6940 hc         1 WR6       0.037200
     82 H062       160.8860   149.1990   167.9290 hc         1 WR6       0.037200
     83 H072       159.9340   147.7430   169.7420 hc         1 WR6       0.036200
     84 H071       159.2210   149.1630   170.5080 hc         1 WR6       0.036200
     85 H081       157.8310   149.5720   168.4550 hc         1 WR6       0.037200
     86 H082       158.5440   148.1520   167.6890 hc         1 WR6       0.037200
     87 H092       157.5930   146.6960   169.5030 hc         1 WR6       0.036200
     88 H091       156.8800   148.1160   170.2690 hc         1 WR6       0.036200
     89 H121       153.1470   147.4770   167.9770 hc         1 WR6       0.037700
     90 H122       153.8610   146.0580   167.2100 hc         1 WR6       0.037700
     91 H131       152.9110   144.6010   169.0240 hc         1 WR6       0.034200
     92 H132       152.1960   146.0200   169.7900 hc         1 WR6       0.034200
     93 H142       150.8150   146.4320   167.7380 hc         1 WR6       0.039700
     94 H141       151.5190   145.0070   166.9720 hc         1 WR6       0.039700
     95 H161       149.2340   143.8360   166.7560 hc         1 WR6       0.037200
     96 H162       148.2620   143.5610   168.1960 hc         1 WR6       0.037200
     97 H261       139.7080   147.6730   164.2180 h1         1 WR6       0.085700
     98 H272       139.6760   146.5540   161.9120 h1         1 WR6       0.072200
     99 H271       140.6350   147.9160   161.3140 h1         1 WR6       0.072200
    100 H312       136.8400   150.0170   162.1100 hc         1 WR6       0.069700
    101 H311       135.7620   149.0520   163.1860 hc         1 WR6       0.069700
    102 H321       135.1830   147.6050   161.2250 hc         1 WR6       0.053200
    103 H322       136.2510   148.5590   160.1950 hc         1 WR6       0.053200
    104 H331       134.8350   150.5950   160.6120 hc         1 WR6       0.036200
    105 H332       133.7680   149.6410   161.6430 hc         1 WR6       0.036200
    106 H342       133.1940   148.1700   159.6880 hc         1 WR6       0.039200
    107 H341       134.2610   149.1240   158.6570 hc         1 WR6       0.039200
    108 H351       132.8470   151.1580   159.0750 hc         1 WR6       0.035700
    109 H352       131.7790   150.2040   160.1060 hc         1 WR6       0.035700
    110 H361       131.2140   148.7320   158.1560 hc         1 WR6       0.037700
    111 H362       132.2720   149.6900   157.1190 hc         1 WR6       0.037700
    112 H372       130.8560   151.7300   157.5980 hc         1 WR6       0.036700
    113 H371       129.7640   150.7380   158.5550 hc         1 WR6       0.036700
    114 H381       130.3310   150.3720   155.5570 hc         1 WR6       0.034700
    115 H382       128.9380   151.2070   156.2340 hc         1 WR6       0.034700
    116 H391       128.2080   149.0560   157.3520 hc         1 WR6       0.039700
    117 H392       129.5600   148.2190   156.5890 hc         1 WR6       0.039700
    118 H402       127.4740   147.8550   155.2960 hc         1 WR6       0.029033
    119 H401       127.2680   149.6070   155.0820 hc         1 WR6       0.029033
    120 H403       128.6400   148.7710   154.3170 hc         1 WR6       0.029033
    121 H412       141.9850   149.4250   163.1520 h1         1 WR6       0.042200
    122 H411       140.3270   149.9760   163.3770 h1         1 WR6       0.042200
    123 H472       141.2660   151.8910   166.3900 h1         1 WR6       0.034200
    124 H471       142.7630   152.8010   166.6360 h1         1 WR6       0.034200
    125 H481       141.0670   154.1190   165.4090 h1         1 WR6       0.014700
    126 H502       143.4280   153.4040   163.5910 h1         1 WR6       0.022200
    127 H501       142.3830   154.8200   163.3970 h1         1 WR6       0.022200
    128 H491       140.3890   153.5040   163.3340 ho         1 WR6       0.418000
    129 H511       144.3350   155.2830   164.5680 ho         1 WR6       0.433000
@<TRIPOS>BOND
     1     1     2 1   
     2     1    19 1   
     3     1    52 1   
     4     1    53 1   
     5     2    20 1   
     6     2    54 1   
     7     2    55 1   
     8     3    22 1   
     9     3    23 1   
    10     3    56 1   
    11     3    57 1   
    12     4     5 1   
    13     4    23 1   
    14     4    58 1   
    15     4    59 1   
    16     5     6 1   
    17     5    60 1   
    18     5    61 1   
    19     6     7 1   
    20     6    62 1   
    21     6    63 1   
    22     7     8 1   
    23     7    64 1   
    24     7    65 1   
    25     8     9 1   
    26     8    66 1   
    27     8    67 1   
    28     9    10 1   
    29     9    68 1   
    30     9    69 1   
    31    10    41 2   
    32    10    42 1   
    33    11    12 1   
    34    11    70 1   
    35    11    71 1   
    36    11    72 1   
    37    12    13 1   
    38    12    73 1   
    39    12    74 1   
    40    13    14 1   
    41    13    75 1   
    42    13    76 1   
    43    14    15 1   
    44    14    77 1   
    45    14    78 1   
    46    15    16 1   
    47    15    79 1   
    48    15    80 1   
    49    16    17 1   
    50    16    81 1   
    51    16    82 1   
    52    17    18 1   
    53    17    83 1   
    54    17    84 1   
    55    18    19 1   
    56    18    85 1   
    57    18    86 1   
    58    19    87 1   
    59    19    88 1   
    60    20    21 1   
    61    20    89 1   
    62    20    90 1   
    63    21    22 1   
    64    21    91 1   
    65    21    92 1   
    66    22    93 1   
    67    22    94 1   
    68    23    95 1   
    69    23    96 1   
    70    24    25 1   
    71    24    37 1   
    72    24    42 1   
    73    24    97 1   
    74    25    43 1   
    75    25    98 1   
    76    25    99 1   
    77    26    27 1   
    78    26    43 1   
    79    26    44 2   
    80    27    28 1   
    81    27   100 1   
    82    27   101 1   
    83    28    29 1   
    84    28   102 1   
    85    28   103 1   
    86    29    30 1   
    87    29   104 1   
    88    29   105 1   
    89    30    31 1   
    90    30   106 1   
    91    30   107 1   
    92    31    32 1   
    93    31   108 1   
    94    31   109 1   
    95    32    33 1   
    96    32   110 1   
    97    32   111 1   
    98    33    34 1   
    99    33   112 1   
   100    33   113 1   
   101    34    35 1   
   102    34   114 1   
   103    34   115 1   
   104    35    36 1   
   105    35   116 1   
   106    35   117 1   
   107    36   118 1   
   108    36   119 1   
   109    36   120 1   
   110    37    45 1   
   111    37   121 1   
   112    37   122 1   
   113    38    39 1   
   114    38    48 1   
   115    38   123 1   
   116    38   124 1   
   117    39    40 1   
   118    39    49 1   
   119    39   125 1   
   120    40    50 1   
   121    40   126 1   
   122    40   127 1   
   123    45    51 1   
   124    46    51 1   
   125    47    51 1   
   126    48    51 1   
   127    49   128 1   
   128    50   129 1   
@<TRIPOS>SUBSTRUCTURE
     1 WR6         1 TEMP              0 ****  ****    0 ROOT
