@<TRIPOS>MOLECULE
WR6
  129   128     1     0     0
SMALL
abcg2


@<TRIPOS>ATOM
      1 C10        156.0120   147.8580   168.3020 c3         1 WR6      -0.074400
      2 C11        154.9470   147.0990   169.0830 c3         1 WR6      -0.074400
      3 C15        150.1060   145.5820   169.3340 c3         1 WR6      -0.072400
      4 C17        148.1280   146.5210   168.0070 c3         1 WR6      -0.074400
      5 C18        146.7180   146.2660   167.4790 c3         1 WR6      -0.079400
      6 C19        146.6600   145.2790   166.3180 c3         1 WR6      -0.067400
      7 C20        145.2560   145.0430   165.7690 c3         1 WR6      -0.073400
      8 C21        144.6370   146.2670   165.1070 c3         1 WR6      -0.066400
      9 C22        143.2710   145.9600   164.5130 c3         1 WR6      -0.117400
     10 C23        142.6190   147.1530   163.8720 c          1 WR6       0.639100
     11 C01        167.0720   150.8850   168.8670 c3         1 WR6      -0.088100
     12 C02        165.7210   150.9580   168.1680 c3         1 WR6      -0.075400
     13 C03        164.6510   150.1240   168.8610 c3         1 WR6      -0.075400
     14 C04        163.2930   150.1890   168.1740 c3         1 WR6      -0.074400
     15 C05        162.2250   149.3610   168.8780 c3         1 WR6      -0.074400
     16 C06        160.8640   149.4170   168.1960 c3         1 WR6      -0.074400
     17 C07        159.7980   148.6060   168.9200 c3         1 WR6      -0.074400
     18 C08        158.4360   148.6430   168.2390 c3         1 WR6      -0.074400
     19 C09        157.3710   147.8550   168.9900 c3         1 WR6      -0.074400
     20 C12        153.5980   147.0450   168.3790 c3         1 WR6      -0.074400
     21 C13        152.5260   146.3330   169.1930 c3         1 WR6      -0.075400
     22 C14        151.1930   146.2070   168.4660 c3         1 WR6      -0.075400
     23 C16        148.8030   145.2860   168.5960 c3         1 WR6      -0.074400
     24 C26        140.4780   147.9310   163.0880 c3         1 WR6       0.134300
     25 C27        140.9340   148.4730   161.7290 c3         1 WR6       0.137600
     26 C29        138.9390   148.5320   160.4190 c          1 WR6       0.595100
     27 C31        137.8990   149.4790   159.8840 c3         1 WR6      -0.141400
     28 C32        136.7070   148.7960   159.2350 c3         1 WR6      -0.066400
     29 C33        135.6700   149.8100   158.7680 c3         1 WR6      -0.076400
     30 C34        134.4470   149.1640   158.1340 c3         1 WR6      -0.074400
     31 C35        133.4040   150.1790   157.6830 c3         1 WR6      -0.075400
     32 C36        132.1720   149.5380   157.0570 c3         1 WR6      -0.075400
     33 C37        131.1320   150.5610   156.6120 c3         1 WR6      -0.073400
     34 C38        129.9170   149.9600   155.9120 c3         1 WR6      -0.072400
     35 C39        129.0480   149.0780   156.8020 c3         1 WR6      -0.077400
     36 C40        127.8110   148.5600   156.0800 c3         1 WR6      -0.089100
     37 C41        140.2350   149.0350   164.1050 c3         1 WR6       0.208600
     38 C47        139.5890   150.9490   167.2580 c3         1 WR6       0.242600
     39 C48        139.8920   152.3550   166.7780 c3         1 WR6       0.159300
     40 C50        141.2090   152.9110   167.3090 c3         1 WR6       0.137600
     41 O24        143.1830   148.1800   163.5930 o          1 WR6      -0.518000
     42 O25        141.3400   146.9060   163.5850 os         1 WR6      -0.438100
     43 O28        139.8660   149.1940   161.1140 os         1 WR6      -0.451100
     44 O30        138.9580   147.3400   160.2510 o          1 WR6      -0.489000
     45 O42        139.6130   148.5130   165.2580 os         1 WR6      -0.595400
     46 O44        141.7660   147.8920   166.5530 o          1 WR6      -0.817000
     47 O45        139.3960   147.9550   167.6770 o          1 WR6      -0.817000
     48 O46        140.6660   150.0850   166.9620 os         1 WR6      -0.598400
     49 O49        139.9050   152.3480   165.3670 oh         1 WR6      -0.643000
     50 O51        141.1550   152.9360   168.7170 oh         1 WR6      -0.656000
     51 P43        140.4000   148.4850   166.7050 p5         1 WR6       1.403800
     52 H101       155.6820   148.8910   168.1490 hc         1 WR6       0.037700
     53 H102       156.1120   147.4210   167.3020 hc         1 WR6       0.037700
     54 H112       155.2960   146.0780   169.2730 hc         1 WR6       0.035200
     55 H111       154.8240   147.5630   170.0680 hc         1 WR6       0.035200
     56 H152       150.4860   144.6500   169.7640 hc         1 WR6       0.032700
     57 H151       149.8990   146.2440   170.1820 hc         1 WR6       0.032700
     58 H171       148.0790   147.2990   168.7760 hc         1 WR6       0.033700
     59 H172       148.7410   146.9330   167.1990 hc         1 WR6       0.033700
     60 H182       146.0860   145.8980   168.2950 hc         1 WR6       0.052700
     61 H181       146.2860   147.2220   167.1710 hc         1 WR6       0.052700
     62 H192       147.0720   144.3180   166.6370 hc         1 WR6       0.024700
     63 H191       147.3100   145.6320   165.5090 hc         1 WR6       0.024700
     64 H201       144.6040   144.6950   166.5780 hc         1 WR6       0.033200
     65 H202       145.2950   144.2260   165.0410 hc         1 WR6       0.033200
     66 H211       145.3100   146.6330   164.3260 hc         1 WR6       0.059200
     67 H212       144.5340   147.0780   165.8310 hc         1 WR6       0.059200
     68 H222       142.6000   145.5670   165.2790 hc         1 WR6       0.066200
     69 H221       143.3570   145.1750   163.7540 hc         1 WR6       0.066200
     70 H012       167.8230   151.4870   168.3530 hc         1 WR6       0.030367
     71 H011       167.0040   151.2480   169.8940 hc         1 WR6       0.030367
     72 H013       167.4410   149.8590   168.9040 hc         1 WR6       0.030367
     73 H022       165.3910   152.0000   168.1170 hc         1 WR6       0.036700
     74 H021       165.8260   150.6240   167.1310 hc         1 WR6       0.036700
     75 H031       164.9820   149.0810   168.9110 hc         1 WR6       0.036700
     76 H032       164.5480   150.4590   169.8990 hc         1 WR6       0.036700
     77 H042       162.9630   151.2320   168.1180 hc         1 WR6       0.036700
     78 H041       163.3930   149.8470   167.1380 hc         1 WR6       0.036700
     79 H051       162.5570   148.3180   168.9390 hc         1 WR6       0.036700
     80 H052       162.1240   149.7060   169.9130 hc         1 WR6       0.036700
     81 H061       160.5380   150.4600   168.1220 hc         1 WR6       0.037200
     82 H062       160.9600   149.0560   167.1660 hc         1 WR6       0.037200
     83 H072       160.1310   147.5650   169.0060 hc         1 WR6       0.036200
     84 H071       159.6990   148.9760   169.9470 hc         1 WR6       0.036200
     85 H081       158.1100   149.6840   168.1340 hc         1 WR6       0.037200
     86 H082       158.5300   148.2520   167.2200 hc         1 WR6       0.037200
     87 H092       157.7090   146.8200   169.1170 hc         1 WR6       0.036200
     88 H091       157.2660   148.2640   170.0010 hc         1 WR6       0.036200
     89 H121       153.2620   148.0630   168.1520 hc         1 WR6       0.037700
     90 H122       153.7150   146.5450   167.4110 hc         1 WR6       0.037700
     91 H131       152.8820   145.3340   169.4690 hc         1 WR6       0.034200
     92 H132       152.3760   146.8690   170.1370 hc         1 WR6       0.034200
     93 H142       150.8760   147.1980   168.1260 hc         1 WR6       0.039700
     94 H141       151.3290   145.6060   167.5600 hc         1 WR6       0.039700
     95 H161       149.0000   144.5550   167.8060 hc         1 WR6       0.037200
     96 H162       148.1070   144.8000   169.2880 hc         1 WR6       0.037200
     97 H261       139.5360   147.3970   162.9390 h1         1 WR6       0.085700
     98 H272       141.2780   147.6560   161.0910 h1         1 WR6       0.072200
     99 H271       141.7380   149.1960   161.8330 h1         1 WR6       0.072200
    100 H312       138.3910   150.1490   159.1700 hc         1 WR6       0.069700
    101 H311       137.5710   150.1220   160.7060 hc         1 WR6       0.069700
    102 H321       136.2430   148.1060   159.9450 hc         1 WR6       0.053200
    103 H322       137.0370   148.1930   158.3850 hc         1 WR6       0.053200
    104 H331       136.1310   150.5000   158.0530 hc         1 WR6       0.036200
    105 H332       135.3550   150.4230   159.6200 hc         1 WR6       0.036200
    106 H342       133.9910   148.4700   158.8480 hc         1 WR6       0.039200
    107 H341       134.7580   148.5570   157.2770 hc         1 WR6       0.039200
    108 H351       133.8580   150.8710   156.9660 hc         1 WR6       0.035700
    109 H352       133.0980   150.7880   158.5410 hc         1 WR6       0.035700
    110 H361       131.7300   148.8400   157.7750 hc         1 WR6       0.037700
    111 H362       132.4750   148.9340   156.1940 hc         1 WR6       0.037700
    112 H372       131.6110   151.2760   155.9360 hc         1 WR6       0.036700
    113 H371       130.8010   151.1420   157.4800 hc         1 WR6       0.036700
    114 H381       130.2480   149.3820   155.0420 hc         1 WR6       0.034700
    115 H382       129.2990   150.7720   155.5160 hc         1 WR6       0.034700
    116 H391       128.7450   149.6470   157.6870 hc         1 WR6       0.039700
    117 H392       129.6280   148.2290   157.1720 hc         1 WR6       0.039700
    118 H402       127.2050   147.9250   156.7270 hc         1 WR6       0.029033
    119 H401       127.1790   149.3830   155.7400 hc         1 WR6       0.029033
    120 H403       128.0850   147.9730   155.2020 hc         1 WR6       0.029033
    121 H412       141.1590   149.5700   164.3290 h1         1 WR6       0.042200
    122 H411       139.5560   149.7620   163.6510 h1         1 WR6       0.042200
    123 H472       138.6570   150.6220   166.7840 h1         1 WR6       0.034200
    124 H471       139.4050   150.9750   168.3360 h1         1 WR6       0.034200
    125 H481       139.0750   152.9860   167.1600 h1         1 WR6       0.014700
    126 H502       142.0390   152.2980   166.9380 h1         1 WR6       0.022200
    127 H501       141.3500   153.9210   166.8970 h1         1 WR6       0.022200
    128 H491       139.9620   153.2570   165.0550 ho         1 WR6       0.418000
    129 H511       142.0040   153.2430   169.0460 ho         1 WR6       0.433000
@<TRIPOS>BOND
     1     1     2 1   
     2     1    19 1   
     3     1    52 1   
     4     1    53 1   
     5     2    20 1   
     6     2    54 1   
     7     2    55 1   
     8     3    22 1   
     9     3    23 1   
    10     3    56 1   
    11     3    57 1   
    12     4     5 1   
    13     4    23 1   
    14     4    58 1   
    15     4    59 1   
    16     5     6 1   
    17     5    60 1   
    18     5    61 1   
    19     6     7 1   
    20     6    62 1   
    21     6    63 1   
    22     7     8 1   
    23     7    64 1   
    24     7    65 1   
    25     8     9 1   
    26     8    66 1   
    27     8    67 1   
    28     9    10 1   
    29     9    68 1   
    30     9    69 1   
    31    10    41 2   
    32    10    42 1   
    33    11    12 1   
    34    11    70 1   
    35    11    71 1   
    36    11    72 1   
    37    12    13 1   
    38    12    73 1   
    39    12    74 1   
    40    13    14 1   
    41    13    75 1   
    42    13    76 1   
    43    14    15 1   
    44    14    77 1   
    45    14    78 1   
    46    15    16 1   
    47    15    79 1   
    48    15    80 1   
    49    16    17 1   
    50    16    81 1   
    51    16    82 1   
    52    17    18 1   
    53    17    83 1   
    54    17    84 1   
    55    18    19 1   
    56    18    85 1   
    57    18    86 1   
    58    19    87 1   
    59    19    88 1   
    60    20    21 1   
    61    20    89 1   
    62    20    90 1   
    63    21    22 1   
    64    21    91 1   
    65    21    92 1   
    66    22    93 1   
    67    22    94 1   
    68    23    95 1   
    69    23    96 1   
    70    24    25 1   
    71    24    37 1   
    72    24    42 1   
    73    24    97 1   
    74    25    43 1   
    75    25    98 1   
    76    25    99 1   
    77    26    27 1   
    78    26    43 1   
    79    26    44 2   
    80    27    28 1   
    81    27   100 1   
    82    27   101 1   
    83    28    29 1   
    84    28   102 1   
    85    28   103 1   
    86    29    30 1   
    87    29   104 1   
    88    29   105 1   
    89    30    31 1   
    90    30   106 1   
    91    30   107 1   
    92    31    32 1   
    93    31   108 1   
    94    31   109 1   
    95    32    33 1   
    96    32   110 1   
    97    32   111 1   
    98    33    34 1   
    99    33   112 1   
   100    33   113 1   
   101    34    35 1   
   102    34   114 1   
   103    34   115 1   
   104    35    36 1   
   105    35   116 1   
   106    35   117 1   
   107    36   118 1   
   108    36   119 1   
   109    36   120 1   
   110    37    45 1   
   111    37   121 1   
   112    37   122 1   
   113    38    39 1   
   114    38    48 1   
   115    38   123 1   
   116    38   124 1   
   117    39    40 1   
   118    39    49 1   
   119    39   125 1   
   120    40    50 1   
   121    40   126 1   
   122    40   127 1   
   123    45    51 1   
   124    46    51 1   
   125    47    51 1   
   126    48    51 1   
   127    49   128 1   
   128    50   129 1   
@<TRIPOS>SUBSTRUCTURE
     1 WR6         1 TEMP              0 ****  ****    0 ROOT
