@<TRIPOS>MOLECULE
WR7
   41    42     1     0     0
SMALL
bcc


@<TRIPOS>ATOM
      1 C1           4.4770     4.1190     0.6280 ca         1 WR7       0.481700
      2 N1           3.9850     2.9670     1.0540 nb         1 WR7      -0.759000
      3 O1          -1.3740    -0.4190     0.2950 os         1 WR7      -0.436900
      4 CL1          3.1900    -1.9580     1.1830 cl         1 WR7      -0.109400
      5 C2           3.3290     2.2350     0.1520 ca         1 WR7       0.913900
      6 N2           3.1310     2.5570    -1.1220 nb         1 WR7      -0.759000
      7 O2          -0.3480     0.2620    -1.5880 o          1 WR7      -0.558000
      8 CL2          4.4950    -0.7890    -1.1060 cl         1 WR7      -0.109400
      9 C3           3.6330     3.7150    -1.5230 ca         1 WR7       0.481700
     10 N3           2.8250     1.0550     0.6060 nu         1 WR7      -0.890900
     11 O3          -4.7340     1.7980     0.7040 o          1 WR7      -0.211000
     12 C4           4.3320     4.5600    -0.6790 ca         1 WR7      -0.418600
     13 N4           0.8160    -0.1730     0.3230 ns         1 WR7      -0.581900
     14 O4          -6.7620     2.1030     0.0820 o          1 WR7      -0.211000
     15 C5           2.1100     0.1290    -0.2010 c3         1 WR7       0.428900
     16 N5          -4.9750    -0.9430     0.1080 na         1 WR7      -0.155900
     17 C6           2.9320    -1.1750    -0.3880 c3         1 WR7       0.214200
     18 N6          -6.7460    -1.8700    -0.8430 nc         1 WR7      -0.678000
     19 C7          -0.3070    -0.0790    -0.4290 c          1 WR7       0.774100
     20 C8          -2.6360    -0.4020    -0.3620 c3         1 WR7       0.145400
     21 C9          -3.6420    -0.8610     0.6810 c3         1 WR7       0.035300
     22 C10         -7.0070    -0.5650    -0.6620 cc         1 WR7       0.433200
     23 C11         -5.5270    -2.0760    -0.3770 cd         1 WR7       0.462800
     24 C12         -5.9250     0.0390    -0.0770 cd         1 WR7      -0.351800
     25 C13         -4.8400    -3.3900    -0.3760 c3         1 WR7      -0.138400
     26 H10         -7.9400    -0.1110    -0.9570 h4         1 WR7       0.070100
     27 H1           5.0100     4.7150     1.3600 h4         1 WR7       0.027100
     28 H3           3.4700     3.9760    -2.5630 h4         1 WR7       0.027100
     29 H13         -4.5940    -3.7170     0.6350 hc         1 WR7       0.068367
     30 HN3          2.9900     0.8420     1.5780 hn         1 WR7       0.458800
     31 H13A        -5.4970    -4.1300    -0.8230 hc         1 WR7       0.068367
     32 H13B        -3.9130    -3.3660    -0.9520 hc         1 WR7       0.068367
     33 H4           4.7390     5.5010    -1.0140 ha         1 WR7       0.157000
     34 HN4          0.7340    -0.4720     1.2840 hn         1 WR7       0.335500
     35 H5           1.9930     0.5640    -1.1940 h2         1 WR7       0.152700
     36 H8          -2.8730     0.6000    -0.7220 h1         1 WR7       0.069200
     37 H8A         -2.6350    -1.0830    -1.2160 h1         1 WR7       0.069200
     38 H9          -3.6520    -0.1990     1.5420 h1         1 WR7       0.088200
     39 H9A         -3.3800    -1.8550     1.0390 h1         1 WR7       0.088200
     40 CL3          2.0590    -2.2850    -1.4470 cl         1 WR7      -0.109400
     41 N7          -5.7920     1.3970     0.2620 no         1 WR7       0.358200
@<TRIPOS>BOND
     1     1     2 ar  
     2     1    12 ar  
     3     1    27 1   
     4     2     5 ar  
     5     3    19 1   
     6     3    20 1   
     7     4    17 1   
     8     5     6 ar  
     9     5    10 1   
    10     6     9 ar  
    11     7    19 2   
    12     8    17 1   
    13     9    12 ar  
    14     9    28 1   
    15    10    15 1   
    16    10    30 1   
    17    11    41 1   
    18    12    33 1   
    19    13    15 1   
    20    13    19 1   
    21    13    34 1   
    22    14    41 1   
    23    15    17 1   
    24    15    35 1   
    25    16    21 1   
    26    16    23 1   
    27    16    24 1   
    28    17    40 1   
    29    18    22 1   
    30    18    23 2   
    31    20    21 1   
    32    20    36 1   
    33    20    37 1   
    34    21    38 1   
    35    21    39 1   
    36    22    24 2   
    37    22    26 1   
    38    23    25 1   
    39    24    41 1   
    40    25    29 1   
    41    25    31 1   
    42    25    32 1   
@<TRIPOS>SUBSTRUCTURE
     1 WR7         1 TEMP              0 ****  ****    0 ROOT
