@<TRIPOS>MOLECULE
WR7
   41    42     1     0     0
SMALL
No Charge or Current Charge


@<TRIPOS>ATOM
      1 C1           4.1920     4.1050     0.9140 ca         1 WR7       0.153400
      2 N1           4.0620     2.7720     1.0560 nb         1 WR7      -0.233000
      3 O1          -1.1380    -0.4470     0.0950 os         1 WR7      -0.460100
      4 Cl1          3.3260    -2.3890     0.9520 cl         1 WR7      -0.186000
      5 C2           3.2590     2.1500     0.1760 ca         1 WR7       0.387900
      6 N2           2.5710     2.7210    -0.8320 nb         1 WR7      -0.233000
      7 O2          -0.0930    -0.2950    -1.9470 o          1 WR7      -0.509000
      8 Cl2          4.7930    -1.3530    -1.3810 cl         1 WR7      -0.186000
      9 C3           2.7030     4.0540    -0.9710 ca         1 WR7       0.153400
     10 N3           3.1430     0.7800     0.3460 nu         1 WR7      -0.946100
     11 O3          -4.4220     2.1600    -0.0210 o          1 WR7      -0.401000
     12 C4           3.5190     4.8000    -0.1040 ca         1 WR7      -0.270000
     13 N4           1.0660    -0.2800     0.0260 ns         1 WR7      -0.514900
     14 O4          -6.4850     2.4070    -0.6850 o          1 WR7      -0.401000
     15 C5           2.4070    -0.1710    -0.5100 c3         1 WR7       0.428900
     16 N5          -4.8660    -0.7550     0.1140 na         1 WR7      -0.134500
     17 C6           3.1330    -1.5680    -0.6640 c3         1 WR7       0.444000
     18 N6          -6.7830    -1.7220    -0.5130 nc         1 WR7      -0.678000
     19 C7          -0.0610    -0.3390    -0.7290 c          1 WR7       0.658100
     20 C8          -2.4400    -0.5200    -0.5140 c3         1 WR7       0.168600
     21 C9          -3.4800    -0.6320     0.6150 c3         1 WR7       0.064600
     22 C10         -6.8830    -0.3650    -0.6460 cc         1 WR7       0.367900
     23 C11         -5.5640    -1.9440    -0.0570 cd         1 WR7       0.462800
     24 C12         -5.7300     0.2760    -0.2790 cd         1 WR7      -0.337200
     25 C13         -5.0400    -3.3240     0.2230 c3         1 WR7      -0.138400
     26 H10         -7.8040     0.0730    -1.0110 h4         1 WR7       0.070100
     27 H1           4.8410     4.6190     1.6220 h4         1 WR7       0.027100
     28 H3           2.1520     4.5260    -1.7820 h4         1 WR7       0.027100
     29 H13         -4.8540    -3.4590     1.2940 hc         1 WR7       0.068367
     30 HN3          3.7170     0.3860     1.0940 hn         1 WR7       0.514000
     31 H13A        -5.7540    -4.0920    -0.0940 hc         1 WR7       0.068367
     32 H13B        -4.1000    -3.5000    -0.3130 hc         1 WR7       0.068367
     33 H4           3.6250     5.8760    -0.2170 ha         1 WR7       0.139000
     34 HN4          0.9450    -0.2960     1.0270 hn         1 WR7       0.335500
     35 H5           2.3200     0.2330    -1.5300 h2         1 WR7       0.152700
     36 H8          -2.6440     0.3770    -1.1140 h1         1 WR7       0.069200
     37 H8A         -2.5160    -1.3980    -1.1700 h1         1 WR7       0.069200
     38 H9          -3.4070     0.2460     1.2670 h1         1 WR7       0.088200
     39 H9A         -3.2400    -1.5080     1.2310 h1         1 WR7       0.088200
     40 Cl3          2.2130    -2.6970    -1.7560 cl         1 WR7      -0.186000
     41 N7          -5.5320     1.7100    -0.3200 no         1 WR7       0.738200
@<TRIPOS>BOND
     1     1     2 ar  
     2     1    12 ar  
     3     1    27 1   
     4     2     5 ar  
     5     3    19 1   
     6     3    20 1   
     7     4    17 1   
     8     5     6 ar  
     9     5    10 1   
    10     6     9 ar  
    11     7    19 2   
    12     8    17 1   
    13     9    12 ar  
    14     9    28 1   
    15    10    15 1   
    16    10    30 1   
    17    11    41 1   
    18    12    33 1   
    19    13    15 1   
    20    13    19 1   
    21    13    34 1   
    22    14    41 1   
    23    15    17 1   
    24    15    35 1   
    25    16    21 1   
    26    16    23 1   
    27    16    24 1   
    28    17    40 1   
    29    18    22 1   
    30    18    23 2   
    31    20    21 1   
    32    20    36 1   
    33    20    37 1   
    34    21    38 1   
    35    21    39 1   
    36    22    24 2   
    37    22    26 1   
    38    23    25 1   
    39    24    41 1   
    40    25    29 1   
    41    25    31 1   
    42    25    32 1   
@<TRIPOS>SUBSTRUCTURE
     1 WR7         1 TEMP              0 ****  ****    0 ROOT
