@<TRIPOS>MOLECULE
WR9
   62    65     1     0     0
SMALL
abcg2


@<TRIPOS>ATOM
      1 C10         10.2480     3.0790    28.6680 c3         1 WR9      -0.169400
      2 C11         10.3590     3.1360    27.1540 c          1 WR9       0.603100
      3 C15          5.8830     2.9660    25.0750 c          1 WR9       0.640100
      4 C17          5.3210     2.5030    23.7470 cx         1 WR9      -0.142700
      5 C18          4.1550     3.2930    23.2050 cx         1 WR9      -0.107900
      6 C19          5.5130     3.4440    22.5820 cx         1 WR9      -0.107900
      7 C20          5.4550     1.0280    23.5140 ca         1 WR9      -0.094300
      8 C21          6.6410     0.3810    23.8890 ca         1 WR9      -0.061000
      9 C22          6.8220    -0.9730    23.6750 ca         1 WR9      -0.169500
     10 C23          5.8170    -1.7310    23.0660 ca         1 WR9       0.143100
     11 C25          5.1010    -3.8690    22.2330 c3         1 WR9       0.194600
     12 C26          5.6370    -5.2610    22.1390 cx         1 WR9      -0.132700
     13 C27          5.5280    -6.1780    23.3260 cx         1 WR9      -0.122900
     14 C28          4.6630    -6.4080    22.1160 cx         1 WR9      -0.122900
     15 C1           3.7080     1.5810    27.6780 c5         1 WR9      -0.093400
     16 C2           4.4530     2.7000    28.4130 c5         1 WR9      -0.080400
     17 C3           5.6520     3.0100    27.4970 c5         1 WR9       0.032700
     18 O5           6.9670     0.9860    27.6100 o          1 WR9      -0.585100
     19 N6           7.8150     2.8580    28.5770 ns         1 WR9      -0.504900
     20 C7           9.0350     2.2460    29.0980 c3         1 WR9       0.151900
     21 C8           8.9590     2.0980    30.5930 c2         1 WR9      -0.249200
     22 C9           9.0210     0.9320    31.2230 c2         1 WR9      -0.285000
     23 N12         10.4300     4.3640    26.6130 nt         1 WR9      -0.603000
     24 O13         10.3850     2.1090    26.4750 o          1 WR9      -0.597100
     25 N14          5.1710     2.6410    26.1700 n          1 WR9      -0.394800
     26 O16          6.9470     3.5880    25.1610 o          1 WR9      -0.615100
     27 O24          6.0840    -3.0530    22.8910 os         1 WR9      -0.350100
     28 C29          4.6300    -1.1070    22.6890 ca         1 WR9      -0.169500
     29 C30          4.4610     0.2580    22.9210 ca         1 WR9      -0.061000
     30 C31          3.8740     1.9480    26.2040 c5         1 WR9       0.114000
     31 H41         10.1890     4.0800    29.1010 hc         1 WR9       0.060700
     32 H40         11.1540     2.6040    29.0500 hc         1 WR9       0.060700
     33 H45          3.3840     2.7690    22.6570 hc         1 WR9       0.078950
     34 H44          3.7900     4.1060    23.8180 hc         1 WR9       0.078950
     35 H46          6.0660     4.3550    22.7650 hc         1 WR9       0.078950
     36 H47          5.6820     2.9850    21.6180 hc         1 WR9       0.078950
     37 H48          7.4350     0.9490    24.3580 ha         1 WR9       0.123500
     38 H49          7.7420    -1.4620    23.9720 ha         1 WR9       0.123500
     39 H50          4.1700    -3.8560    22.8090 h1         1 WR9       0.036700
     40 H51          4.8990    -3.4550    21.2400 h1         1 WR9       0.036700
     41 H52          6.5220    -5.3650    21.5220 hc         1 WR9       0.090700
     42 H54          6.3420    -6.8660    23.5110 hc         1 WR9       0.073450
     43 H53          5.0540    -5.7850    24.2160 hc         1 WR9       0.073450
     44 H55          3.6100    -6.1730    22.1970 hc         1 WR9       0.073450
     45 H56          4.8910    -7.2480    21.4740 hc         1 WR9       0.073450
     46 H32          4.1810     0.6200    27.8770 hc         1 WR9       0.064200
     47 H33          2.6600     1.5150    27.9650 hc         1 WR9       0.064200
     48 H35          3.8280     3.5910    28.4870 hc         1 WR9       0.055200
     49 H34          4.7660     2.4210    29.4190 hc         1 WR9       0.055200
     50 H36          5.9110     4.0680    27.5170 h1         1 WR9       0.067700
     51 H37          7.6660     3.8400    28.7540 hn         1 WR9       0.306500
     52 H38          9.1030     1.2620    28.6400 h1         1 WR9       0.108700
     53 H1           8.8430     3.0210    31.1550 ha         1 WR9       0.163000
     54 H91          8.9630     0.8670    32.3030 ha         1 WR9       0.169000
     55 H92          9.1360     0.0010    30.6770 ha         1 WR9       0.169000
     56 H43         10.5040     4.4660    25.6120 hn         1 WR9       0.314000
     57 H42         10.3840     5.1950    27.1780 hn         1 WR9       0.314000
     58 H57          3.8290    -1.6650    22.2260 ha         1 WR9       0.123500
     59 H58          3.5220     0.7110    22.6340 ha         1 WR9       0.123500
     60 H60          3.8820     1.0780    25.5530 h1         1 WR9       0.053200
     61 H59          3.0830     2.6240    25.8700 h1         1 WR9       0.053200
     62 C4           6.8800     2.1810    27.8840 c          1 WR9       0.597100
@<TRIPOS>BOND
     1     1     2 1   
     2     1    20 1   
     3     1    31 1   
     4     1    32 1   
     5     2    23 1   
     6     2    24 2   
     7     3     4 1   
     8     3    25 1   
     9     3    26 2   
    10     4     5 1   
    11     4     6 1   
    12     4     7 1   
    13     5     6 1   
    14     5    33 1   
    15     5    34 1   
    16     6    35 1   
    17     6    36 1   
    18     7     8 ar  
    19     7    29 ar  
    20     8     9 ar  
    21     8    37 1   
    22     9    10 ar  
    23     9    38 1   
    24    10    27 1   
    25    10    28 ar  
    26    11    12 1   
    27    11    27 1   
    28    11    39 1   
    29    11    40 1   
    30    12    13 1   
    31    12    14 1   
    32    12    41 1   
    33    13    14 1   
    34    13    42 1   
    35    13    43 1   
    36    14    44 1   
    37    14    45 1   
    38    15    16 1   
    39    15    30 1   
    40    15    46 1   
    41    15    47 1   
    42    16    17 1   
    43    16    48 1   
    44    16    49 1   
    45    17    25 1   
    46    17    50 1   
    47    17    62 1   
    48    18    62 2   
    49    19    20 1   
    50    19    51 1   
    51    19    62 1   
    52    20    21 1   
    53    20    52 1   
    54    21    22 2   
    55    21    53 1   
    56    22    54 1   
    57    22    55 1   
    58    23    56 1   
    59    23    57 1   
    60    25    30 1   
    61    28    29 ar  
    62    28    58 1   
    63    29    59 1   
    64    30    60 1   
    65    30    61 1   
@<TRIPOS>SUBSTRUCTURE
     1 WR9         1 TEMP              0 ****  ****    0 ROOT
