@<TRIPOS>MOLECULE
WR9
   62    65     1     0     0
SMALL
No Charge or Current Charge


@<TRIPOS>ATOM
      1 C10         10.3560     2.6680    28.8930 c3         1 WR9      -0.169400
      2 C11         10.5170     2.2500    27.4320 c          1 WR9       0.603100
      3 C15          5.9430     2.9810    24.8870 c          1 WR9       0.640100
      4 C17          5.1720     2.5680    23.6320 cx         1 WR9      -0.142700
      5 C18          3.9020     3.3370    23.2980 cx         1 WR9      -0.107900
      6 C19          5.1520     3.5750    22.4950 cx         1 WR9      -0.107900
      7 C20          5.3470     1.1090    23.2820 ca         1 WR9      -0.094300
      8 C21          6.6330     0.6200    22.9790 ca         1 WR9      -0.061000
      9 C22          6.8200    -0.7340    22.6520 ca         1 WR9      -0.169500
     10 C23          5.7300    -1.6160    22.6220 ca         1 WR9       0.143100
     11 C25          4.9290    -3.9160    22.2420 c3         1 WR9       0.194600
     12 C26          5.5740    -5.2420    21.8580 cx         1 WR9      -0.132700
     13 C27          6.2580    -6.1070    22.8920 cx         1 WR9      -0.122900
     14 C28          4.9540    -6.5570    22.2730 cx         1 WR9      -0.122900
     15 C1           4.0070     1.7520    27.8220 c5         1 WR9      -0.093400
     16 C2           4.7810     2.9590    28.4090 c5         1 WR9      -0.080400
     17 C3           5.9770     3.0980    27.4180 c5         1 WR9       0.032700
     18 O5           7.4100     1.0420    27.3780 o          1 WR9      -0.585100
     19 N6           7.8720     2.7410    28.8460 ns         1 WR9      -0.504900
     20 C7           9.0350     2.1510    29.5000 c3         1 WR9       0.151900
     21 C8           8.9280     2.4580    30.9790 c2         1 WR9      -0.249200
     22 C9           8.0110     1.9370    31.8110 c2         1 WR9      -0.285000
     23 N12         10.2210     3.1850    26.5050 nt         1 WR9      -0.603000
     24 O13         10.9200     1.1500    27.0950 o          1 WR9      -0.597100
     25 N14          5.3270     2.7270    26.1320 n          1 WR9      -0.394800
     26 O16          7.0450     3.5150    24.8230 o          1 WR9      -0.615100
     27 O24          5.9760    -2.9340    22.2950 os         1 WR9      -0.350100
     28 C29          4.4390    -1.1330    22.9200 ca         1 WR9      -0.169500
     29 C30          4.2510     0.2220    23.2470 ca         1 WR9      -0.061000
     30 C31          4.0120     2.0710    26.3050 c5         1 WR9       0.114000
     31 H41         10.3550     3.7620    28.9700 hc         1 WR9       0.060700
     32 H40         11.1880     2.2480    29.4710 hc         1 WR9       0.060700
     33 H45          3.0860     2.8180    22.8020 hc         1 WR9       0.078950
     34 H44          3.5860     4.1260    23.9780 hc         1 WR9       0.078950
     35 H46          5.6680     4.5230    22.6340 hc         1 WR9       0.078950
     36 H47          5.1780     3.1930    21.4770 hc         1 WR9       0.078950
     37 H48          7.4890     1.2910    22.9950 ha         1 WR9       0.123500
     38 H49          7.8170    -1.1010    22.4210 ha         1 WR9       0.123500
     39 H50          4.4350    -4.0100    23.2190 h1         1 WR9       0.036700
     40 H51          4.1760    -3.6450    21.4910 h1         1 WR9       0.036700
     41 H52          6.0260    -5.2080    20.8690 hc         1 WR9       0.090700
     42 H54          7.1660    -6.6270    22.5970 hc         1 WR9       0.073450
     43 H53          6.2400    -5.7770    23.9280 hc         1 WR9       0.073450
     44 H55          4.0630    -6.5310    22.8970 hc         1 WR9       0.073450
     45 H56          4.9870    -7.3800    21.5630 hc         1 WR9       0.073450
     46 H32          4.5260     0.8080    28.0270 hc         1 WR9       0.064200
     47 H33          2.9920     1.6600    28.2250 hc         1 WR9       0.064200
     48 H35          4.1590     3.8620    28.3960 hc         1 WR9       0.055200
     49 H34          5.0940     2.7990    29.4470 hc         1 WR9       0.055200
     50 H36          6.3600     4.1270    27.3950 h1         1 WR9       0.067700
     51 H37          7.5490     3.6410    29.1780 hn         1 WR9       0.306500
     52 H38          9.0020     1.0580    29.3720 h1         1 WR9       0.108700
     53 H1           9.6720     3.1630    31.3580 ha         1 WR9       0.163000
     54 H91          7.9850     2.1990    32.8710 ha         1 WR9       0.169000
     55 H92          7.2540     1.2330    31.4640 ha         1 WR9       0.169000
     56 H43         10.2990     2.9530    25.5270 hn         1 WR9       0.314000
     57 H42          9.8850     4.0930    26.7900 hn         1 WR9       0.314000
     58 H57          3.5730    -1.7880    22.9050 ha         1 WR9       0.123500
     59 H58          3.2490     0.5760    23.4770 ha         1 WR9       0.123500
     60 H60          3.9120     1.1560    25.7110 h1         1 WR9       0.053200
     61 H59          3.1980     2.7580    26.0390 h1         1 WR9       0.053200
     62 C4           7.1380     2.1420    27.8430 c          1 WR9       0.597100
@<TRIPOS>BOND
     1     1     2 1   
     2     1    20 1   
     3     1    31 1   
     4     1    32 1   
     5     2    23 1   
     6     2    24 2   
     7     3     4 1   
     8     3    25 1   
     9     3    26 2   
    10     4     5 1   
    11     4     6 1   
    12     4     7 1   
    13     5     6 1   
    14     5    33 1   
    15     5    34 1   
    16     6    35 1   
    17     6    36 1   
    18     7     8 ar  
    19     7    29 ar  
    20     8     9 ar  
    21     8    37 1   
    22     9    10 ar  
    23     9    38 1   
    24    10    27 1   
    25    10    28 ar  
    26    11    12 1   
    27    11    27 1   
    28    11    39 1   
    29    11    40 1   
    30    12    13 1   
    31    12    14 1   
    32    12    41 1   
    33    13    14 1   
    34    13    42 1   
    35    13    43 1   
    36    14    44 1   
    37    14    45 1   
    38    15    16 1   
    39    15    30 1   
    40    15    46 1   
    41    15    47 1   
    42    16    17 1   
    43    16    48 1   
    44    16    49 1   
    45    17    25 1   
    46    17    50 1   
    47    17    62 1   
    48    18    62 2   
    49    19    20 1   
    50    19    51 1   
    51    19    62 1   
    52    20    21 1   
    53    20    52 1   
    54    21    22 2   
    55    21    53 1   
    56    22    54 1   
    57    22    55 1   
    58    23    56 1   
    59    23    57 1   
    60    25    30 1   
    61    28    29 ar  
    62    28    58 1   
    63    29    59 1   
    64    30    60 1   
    65    30    61 1   
@<TRIPOS>SUBSTRUCTURE
     1 WR9         1 TEMP              0 ****  ****    0 ROOT
