@<TRIPOS>MOLECULE
WRA
   42    43     1     0     0
SMALL
abcg2


@<TRIPOS>ATOM
      1 C1          29.5560   -27.2820     7.5510 c6         1 WRA       0.445400
      2 N2          29.4190   -26.0960     8.3750 n2         1 WRA      -0.759900
      3 C3          28.3330   -25.9860     9.0700 ce         1 WRA       0.868200
      4 N4          27.3030   -26.9020     9.1700 ne         1 WRA      -0.881000
      5 C5          27.5810   -28.0990     8.7100 c2         1 WRA       0.861100
      6 N6          28.8370   -28.4030     8.2380 nh         1 WRA      -0.556100
      7 O7          28.8950   -29.6220     7.5350 os         1 WRA      -0.258300
      8 C8          29.6290   -30.6150     8.2810 c3         1 WRA       0.150600
      9 C9          29.8050   -31.8150     7.3710 c3         1 WRA      -0.082400
     10 C10         30.5790   -31.5060     6.1060 c3         1 WRA       0.165600
     11 O11         31.8880   -31.0550     6.4980 os         1 WRA      -0.339100
     12 C12         32.6940   -30.5060     5.5730 ca         1 WRA       0.167100
     13 C13         33.8880   -29.9190     6.0230 ca         1 WRA       0.085000
     14 C14         34.7690   -29.3260     5.1400 ca         1 WRA      -0.054000
     15 C15         34.4820   -29.3000     3.7790 ca         1 WRA       0.089000
     16 C16         33.3040   -29.8800     3.3200 ca         1 WRA       0.163000
     17 C17         32.4180   -30.4780     4.2090 ca         1 WRA      -0.187000
     18 CM1         31.0320   -27.6460     7.4420 c3         1 WRA      -0.098100
     19 CM2         28.9530   -27.0490     6.1580 c3         1 WRA      -0.098100
     20 NH1         28.1380   -24.8650     9.8430 nv         1 WRA      -1.005200
     21 NH2         26.6740   -29.0830     8.7650 nv         1 WRA      -1.043200
     22 CL1         34.2560   -29.9270     7.7230 cl         1 WRA      -0.171000
     23 CL2         35.6110   -28.5410     2.6970 cl         1 WRA      -0.169000
     24 CL3         32.9010   -29.8780     1.6300 cl         1 WRA      -0.172000
     25 H81         30.5900   -30.1990     8.5780 h1         1 WRA       0.058700
     26 H82         29.0650   -30.8860     9.1770 h1         1 WRA       0.058700
     27 H91         30.3150   -32.5990     7.9360 hc         1 WRA       0.064700
     28 H92         28.8280   -32.2100     7.0800 hc         1 WRA       0.064700
     29 H101        30.6760   -32.3940     5.4780 h1         1 WRA       0.049200
     30 H102        30.0880   -30.7180     5.5320 h1         1 WRA       0.049200
     31 H14         35.6800   -28.8760     5.5070 ha         1 WRA       0.149000
     32 H17         31.5150   -30.9240     3.8220 ha         1 WRA       0.137000
     33 H11         31.1810   -28.5150     6.8060 hc         1 WRA       0.047867
     34 H12         31.5650   -26.8020     7.0030 hc         1 WRA       0.047867
     35 H13         31.4480   -27.8460     8.4290 hc         1 WRA       0.047867
     36 H21         29.0570   -27.9370     5.5340 hc         1 WRA       0.047867
     37 H22         27.8960   -26.7910     6.2380 hc         1 WRA       0.047867
     38 H23         29.4760   -26.2220     5.6770 hc         1 WRA       0.047867
     39 HH11        27.1860   -24.6820    10.1160 hn         1 WRA       0.474000
     40 HH12        28.6770   -24.0520     9.5870 hn         1 WRA       0.474000
     41 HH21        26.8200   -29.9260     8.2370 hn         1 WRA       0.506000
     42 HH22        25.7470   -28.8560     9.0850 hn         1 WRA       0.506000
@<TRIPOS>BOND
     1     1     2 1   
     2     1     6 1   
     3     1    18 1   
     4     1    19 1   
     5     2     3 2   
     6     3     4 1   
     7     3    20 1   
     8     4     5 2   
     9     5     6 1   
    10     5    21 1   
    11     6     7 1   
    12     7     8 1   
    13     8     9 1   
    14     8    25 1   
    15     8    26 1   
    16     9    10 1   
    17     9    27 1   
    18     9    28 1   
    19    10    11 1   
    20    10    29 1   
    21    10    30 1   
    22    11    12 1   
    23    12    13 ar  
    24    12    17 ar  
    25    13    14 ar  
    26    13    22 1   
    27    14    15 ar  
    28    14    31 1   
    29    15    16 ar  
    30    15    23 1   
    31    16    17 ar  
    32    16    24 1   
    33    17    32 1   
    34    18    33 1   
    35    18    34 1   
    36    18    35 1   
    37    19    36 1   
    38    19    37 1   
    39    19    38 1   
    40    20    39 1   
    41    20    40 1   
    42    21    41 1   
    43    21    42 1   
@<TRIPOS>SUBSTRUCTURE
     1 WRA         1 TEMP              0 ****  ****    0 ROOT
