@<TRIPOS>MOLECULE
WRA
   42    43     1     0     0
SMALL
No Charge or Current Charge


@<TRIPOS>ATOM
      1 C1          29.6320   -27.3030     7.7490 c6         1 WRA       0.445400
      2 N2          29.2730   -26.0170     8.3530 n2         1 WRA      -0.759900
      3 C3          28.3560   -25.9810     9.2230 ce         1 WRA       0.868200
      4 N4          27.3610   -26.8690     9.3860 ne         1 WRA      -0.881000
      5 C5          27.6910   -28.0310     9.0210 c2         1 WRA       0.861100
      6 N6          28.8520   -28.3830     8.3860 nh         1 WRA      -0.556100
      7 O7          28.8570   -29.6220     7.6080 os         1 WRA      -0.258300
      8 C8          29.5800   -30.6670     8.2880 c3         1 WRA       0.150600
      9 C9          29.7320   -31.8510     7.3100 c3         1 WRA      -0.082400
     10 C10         30.4690   -31.4860     6.0050 c3         1 WRA       0.165600
     11 O11         31.7740   -30.9970     6.3580 os         1 WRA      -0.339100
     12 C12         32.6440   -30.4600     5.4280 ca         1 WRA       0.167100
     13 C13         33.8640   -29.9120     5.8820 ca         1 WRA       0.085000
     14 C14         34.7710   -29.3460     4.9700 ca         1 WRA      -0.054000
     15 C15         34.4690   -29.3230     3.5980 ca         1 WRA       0.089000
     16 C16         33.2530   -29.8700     3.1380 ca         1 WRA       0.163000
     17 C17         32.3440   -30.4360     4.0480 ca         1 WRA      -0.187000
     18 CM1         31.1500   -27.5270     7.9750 c3         1 WRA      -0.098100
     19 CM2         29.3480   -27.2020     6.2230 c3         1 WRA      -0.098100
     20 NH1         27.7490   -24.8660     9.5200 nv         1 WRA      -1.005200
     21 NH2         26.7410   -28.9490     9.0960 nv         1 WRA      -1.043200
     22 Cl1         34.2700   -29.9180     7.5990 cl         1 WRA      -0.171000
     23 Cl2         35.6290   -28.6050     2.4780 cl         1 WRA      -0.169000
     24 Cl3         32.8440   -29.8570     1.4230 cl         1 WRA      -0.172000
     25 H81         30.5740   -30.3210     8.5990 h1         1 WRA       0.058700
     26 H82         29.0400   -30.9930     9.1860 h1         1 WRA       0.058700
     27 H91         30.2730   -32.6610     7.8130 hc         1 WRA       0.064700
     28 H92         28.7390   -32.2410     7.0630 hc         1 WRA       0.064700
     29 H101        30.5460   -32.3740     5.3650 h1         1 WRA       0.049200
     30 H102        29.8970   -30.7180     5.4670 h1         1 WRA       0.049200
     31 H14         35.7070   -28.9250     5.3260 ha         1 WRA       0.149000
     32 H17         31.4170   -30.8510     3.6630 ha         1 WRA       0.137000
     33 H11         31.4940   -28.4410     7.4820 hc         1 WRA       0.047867
     34 H12         31.7410   -26.6960     7.5700 hc         1 WRA       0.047867
     35 H13         31.3850   -27.6140     9.0420 hc         1 WRA       0.047867
     36 H21         29.6820   -28.0980     5.6870 hc         1 WRA       0.047867
     37 H22         28.2770   -27.0760     6.0260 hc         1 WRA       0.047867
     38 H23         29.8700   -26.3470     5.7780 hc         1 WRA       0.047867
     39 HH11        26.7770   -25.0950     9.6500 hn         1 WRA       0.474000
     40 HH12        27.9310   -24.1580     8.8280 hn         1 WRA       0.474000
     41 HH21        26.9090   -29.6230     8.3650 hn         1 WRA       0.506000
     42 HH22        25.8410   -28.4990     9.0550 hn         1 WRA       0.506000
@<TRIPOS>BOND
     1     1     2 1   
     2     1     6 1   
     3     1    18 1   
     4     1    19 1   
     5     2     3 2   
     6     3     4 1   
     7     3    20 1   
     8     4     5 2   
     9     5     6 1   
    10     5    21 1   
    11     6     7 1   
    12     7     8 1   
    13     8     9 1   
    14     8    25 1   
    15     8    26 1   
    16     9    10 1   
    17     9    27 1   
    18     9    28 1   
    19    10    11 1   
    20    10    29 1   
    21    10    30 1   
    22    11    12 1   
    23    12    13 ar  
    24    12    17 ar  
    25    13    14 ar  
    26    13    22 1   
    27    14    15 ar  
    28    14    31 1   
    29    15    16 ar  
    30    15    23 1   
    31    16    17 ar  
    32    16    24 1   
    33    17    32 1   
    34    18    33 1   
    35    18    34 1   
    36    18    35 1   
    37    19    36 1   
    38    19    37 1   
    39    19    38 1   
    40    20    39 1   
    41    20    40 1   
    42    21    41 1   
    43    21    42 1   
@<TRIPOS>SUBSTRUCTURE
     1 WRA         1 TEMP              0 ****  ****    0 ROOT
