@<TRIPOS>MOLECULE
WRB
   42    43     1     0     0
SMALL
abcg2


@<TRIPOS>ATOM
      1 C1           6.2180    26.0270     9.9080 c6         1 WRB       0.448400
      2 N2           6.1180    26.2570     8.4790 n2         1 WRB      -0.760900
      3 C3           6.6680    25.3800     7.7020 ce         1 WRB       0.868200
      4 N4           7.2980    24.2060     8.0740 ne         1 WRB      -0.881000
      5 C5           7.0840    23.8340     9.3140 c2         1 WRB       0.861100
      6 N6           6.2380    24.5470    10.1300 nh         1 WRB      -0.560100
      7 O7           6.3070    24.1800    11.4860 os         1 WRB      -0.255300
      8 C8           5.1190    23.4590    11.8830 c3         1 WRB       0.149600
      9 C9           5.1770    23.2930    13.3880 c3         1 WRB      -0.083400
     10 C10          5.1350    24.6070    14.1450 c3         1 WRB       0.164600
     11 O11          3.8800    25.2370    13.8520 os         1 WRB      -0.357100
     12 C12          3.6820    26.5190    14.2460 ca         1 WRB       0.153100
     13 C13          4.5830    27.2550    15.0160 ca         1 WRB      -0.170500
     14 C14          4.2850    28.5720    15.3620 ca         1 WRB      -0.046000
     15 C15          2.4840    27.1090    13.8310 ca         1 WRB      -0.170500
     16 C16          2.1870    28.4160    14.1760 ca         1 WRB      -0.046000
     17 C17          3.0950    29.1400    14.9420 ca         1 WRB      -0.047900
     18 CM1          4.9900    26.6070    10.5990 c3         1 WRB      -0.098100
     19 CM2          7.5010    26.6580    10.4700 c3         1 WRB      -0.098100
     20 NH1          6.6290    25.5650     6.3410 nv         1 WRB      -1.006200
     21 NH2          7.6180    22.7020     9.7930 nv         1 WRB      -1.042200
     22 BR           2.6860    30.9500    15.4250 br         1 WRB      -0.111100
     23 H81          4.2410    24.0260    11.5780 h1         1 WRB       0.057200
     24 H82          5.1050    22.4870    11.3840 h1         1 WRB       0.057200
     25 H91          4.3350    22.6660    13.6920 hc         1 WRB       0.063200
     26 H92          6.0910    22.7630    13.6680 hc         1 WRB       0.063200
     27 H101         5.2170    24.4370    15.2220 h1         1 WRB       0.045700
     28 H102         5.9520    25.2590    13.8310 h1         1 WRB       0.045700
     29 H131         5.5130    26.8230    15.3530 ha         1 WRB       0.126000
     30 H141         4.9870    29.1390    15.9580 ha         1 WRB       0.130000
     31 H151         1.7940    26.5300    13.2300 ha         1 WRB       0.126000
     32 H161         1.2600    28.8660    13.8500 ha         1 WRB       0.130000
     33 HM11         5.0420    26.4770    11.6780 hc         1 WRB       0.047867
     34 HM12         4.9430    27.6740    10.3820 hc         1 WRB       0.047867
     35 HM13         4.0830    26.1340    10.2220 hc         1 WRB       0.047867
     36 HM21         7.5830    26.4850    11.5430 hc         1 WRB       0.047867
     37 HM22         8.3800    26.2430     9.9730 hc         1 WRB       0.047867
     38 HM23         7.4780    27.7330    10.2890 hc         1 WRB       0.047867
     39 HN11         7.3000    25.0370     5.8070 hn         1 WRB       0.474500
     40 HN12         6.4700    26.5090     6.0250 hn         1 WRB       0.474500
     41 HN21         7.6290    22.5370    10.7850 hn         1 WRB       0.505000
     42 HN22         8.2640    22.2020     9.2050 hn         1 WRB       0.505000
@<TRIPOS>BOND
     1     1     2 1   
     2     1     6 1   
     3     1    18 1   
     4     1    19 1   
     5     2     3 2   
     6     3     4 1   
     7     3    20 1   
     8     4     5 2   
     9     5     6 1   
    10     5    21 1   
    11     6     7 1   
    12     7     8 1   
    13     8     9 1   
    14     8    23 1   
    15     8    24 1   
    16     9    10 1   
    17     9    25 1   
    18     9    26 1   
    19    10    11 1   
    20    10    27 1   
    21    10    28 1   
    22    11    12 1   
    23    12    13 ar  
    24    12    15 ar  
    25    13    14 ar  
    26    13    29 1   
    27    14    17 ar  
    28    14    30 1   
    29    15    16 ar  
    30    15    31 1   
    31    16    17 ar  
    32    16    32 1   
    33    17    22 1   
    34    18    33 1   
    35    18    34 1   
    36    18    35 1   
    37    19    36 1   
    38    19    37 1   
    39    19    38 1   
    40    20    39 1   
    41    20    40 1   
    42    21    41 1   
    43    21    42 1   
@<TRIPOS>SUBSTRUCTURE
     1 WRB         1 TEMP              0 ****  ****    0 ROOT
