@<TRIPOS>MOLECULE
WRB
   42    43     1     0     0
SMALL
No Charge or Current Charge


@<TRIPOS>ATOM
      1 C1           5.9180    25.9180     9.8380 c6         1 WRB       0.448400
      2 N2           6.1970    26.2650     8.4420 n2         1 WRB      -0.760900
      3 C3           6.5840    25.3590     7.6490 ce         1 WRB       0.868200
      4 N4           7.2130    24.2170     7.9750 ne         1 WRB      -0.881000
      5 C5           6.8940    23.8050     9.1250 c2         1 WRB       0.861100
      6 N6           6.1210    24.4680    10.0390 nh         1 WRB      -0.560100
      7 O7           6.2680    24.1060    11.4480 os         1 WRB      -0.255300
      8 C8           5.1410    23.3380    11.9160 c3         1 WRB       0.149600
      9 C9           5.2570    23.2120    13.4500 c3         1 WRB      -0.083400
     10 C10          5.2990    24.5690    14.1830 c3         1 WRB       0.164600
     11 O11          4.0910    25.2830    13.8660 os         1 WRB      -0.357100
     12 C12          3.8860    26.5890    14.2550 ca         1 WRB       0.153100
     13 C13          4.8070    27.3000    15.0550 ca         1 WRB      -0.170500
     14 C14          4.5460    28.6370    15.4080 ca         1 WRB      -0.046000
     15 C15          2.7110    27.2240    13.8180 ca         1 WRB      -0.170500
     16 C16          2.4500    28.5590    14.1700 ca         1 WRB      -0.046000
     17 C17          3.3690    29.2630    14.9650 ca         1 WRB      -0.047900
     18 CM1          4.4460    26.3060    10.1370 c3         1 WRB      -0.098100
     19 CM2          6.8660    26.7700    10.7310 c3         1 WRB      -0.098100
     20 NH1          7.1710    25.6530     6.5240 nv         1 WRB      -1.006200
     21 NH2          7.5180    22.7150     9.5390 nv         1 WRB      -1.042200
     22 Br           3.0180    31.0810    15.4460 br         1 WRB      -0.111100
     23 H81          4.1950    23.8330    11.6630 h1         1 WRB       0.057200
     24 H82          5.1330    22.3400    11.4600 h1         1 WRB       0.057200
     25 H91          4.4090    22.6270    13.8250 hc         1 WRB       0.063200
     26 H92          6.1630    22.6460    13.6950 hc         1 WRB       0.063200
     27 H101         5.3780    24.4010    15.2650 h1         1 WRB       0.045700
     28 H102         6.1820    25.1320    13.8540 h1         1 WRB       0.045700
     29 H131         5.7230    26.8370    15.4100 ha         1 WRB       0.126000
     30 H141         5.2560    29.1850    16.0250 ha         1 WRB       0.130000
     31 H151         2.0020    26.6780    13.2010 ha         1 WRB       0.126000
     32 H161         1.5390    29.0450    13.8280 ha         1 WRB       0.130000
     33 HM11         4.1950    26.1390    11.1900 hc         1 WRB       0.047867
     34 HM12         4.2610    27.3650     9.9220 hc         1 WRB       0.047867
     35 HM13         3.7490    25.7160     9.5300 hc         1 WRB       0.047867
     36 HM21         6.6460    26.6390    11.7970 hc         1 WRB       0.047867
     37 HM22         7.9150    26.4960    10.5700 hc         1 WRB       0.047867
     38 HM23         6.7640    27.8390    10.5110 hc         1 WRB       0.047867
     39 HN11         7.9100    24.9800     6.4030 hn         1 WRB       0.474500
     40 HN12         7.4660    26.6150     6.5110 hn         1 WRB       0.474500
     41 HN21         7.5940    22.7690    10.5430 hn         1 WRB       0.505000
     42 HN22         8.3970    22.6310     9.0540 hn         1 WRB       0.505000
@<TRIPOS>BOND
     1     1     2 1   
     2     1     6 1   
     3     1    18 1   
     4     1    19 1   
     5     2     3 2   
     6     3     4 1   
     7     3    20 1   
     8     4     5 2   
     9     5     6 1   
    10     5    21 1   
    11     6     7 1   
    12     7     8 1   
    13     8     9 1   
    14     8    23 1   
    15     8    24 1   
    16     9    10 1   
    17     9    25 1   
    18     9    26 1   
    19    10    11 1   
    20    10    27 1   
    21    10    28 1   
    22    11    12 1   
    23    12    13 ar  
    24    12    15 ar  
    25    13    14 ar  
    26    13    29 1   
    27    14    17 ar  
    28    14    30 1   
    29    15    16 ar  
    30    15    31 1   
    31    16    17 ar  
    32    16    32 1   
    33    17    22 1   
    34    18    33 1   
    35    18    34 1   
    36    18    35 1   
    37    19    36 1   
    38    19    37 1   
    39    19    38 1   
    40    20    39 1   
    41    20    40 1   
    42    21    41 1   
    43    21    42 1   
@<TRIPOS>SUBSTRUCTURE
     1 WRB         1 TEMP              0 ****  ****    0 ROOT
