@<TRIPOS>MOLECULE
WRC
   49    50     1     0     0
SMALL
No Charge or Current Charge


@<TRIPOS>ATOM
      1 CAA         18.9050     9.2660     9.8470 c3         1 WRC      -0.087433
      2 CBB         17.6650     8.3340     9.9190 c3         1 WRC      -0.036000
      3 CAB         18.1360     6.8690     9.7240 c3         1 WRC      -0.087433
      4 CAC         16.6820     8.7000     8.7750 c3         1 WRC      -0.087433
      5 CAP         16.9560     8.4470    11.3080 c3         1 WRC      -0.150400
      6 CAS         16.3620     9.8310    11.6160 c          1 WRC       0.606100
      7 OAD         17.0370    10.7750    12.0010 o          1 WRC      -0.596100
      8 N           14.9980     9.9210    11.4700 ns         1 WRC      -0.508900
      9 CA          14.2000    11.1380    11.7280 c3         1 WRC       0.087000
     10 C           12.8550    11.1070    10.9410 c          1 WRC       0.596100
     11 O           12.4870    10.1380    10.2840 o          1 WRC      -0.569100
     12 NAQ         12.0900    12.2660    11.0410 ns         1 WRC      -0.383400
     13 OAF         10.7120    12.2910    10.5930 oh         1 WRC      -0.415100
     14 CAY         13.9650    11.3240    13.2270 ca         1 WRC      -0.088300
     15 CAM         14.5070    12.4360    13.8980 ca         1 WRC      -0.089000
     16 CAK         14.2930    12.6090    15.2760 ca         1 WRC      -0.089500
     17 CAL         13.2100    10.3860    13.9550 ca         1 WRC      -0.089000
     18 CAJ         12.9950    10.5610    15.3330 ca         1 WRC      -0.089500
     19 CAW         13.5310    11.6770    16.0230 cp         1 WRC      -0.037000
     20 CAX         13.3020    11.8620    17.4920 cp         1 WRC       0.013000
     21 CAN         12.0780    11.4790    18.0970 ca         1 WRC      -0.140500
     22 CAU         11.8640    11.6540    19.4740 ca         1 WRC       0.162000
     23 FAG         10.6820    11.2810    20.0170 f          1 WRC      -0.155000
     24 CAZ         12.8680    12.2140    20.2820 ca         1 WRC       0.087000
     25 FAI         12.6610    12.3820    21.6110 f          1 WRC      -0.142000
     26 CAV         14.0880    12.5990    19.7010 ca         1 WRC       0.162000
     27 FAH         15.0670    13.1370    20.4650 f          1 WRC      -0.155000
     28 CAO         14.3030    12.4270    18.3240 ca         1 WRC      -0.140500
     29 H1          19.5960     9.0650    10.6740 hc         1 WRC       0.037589
     30 H2          19.4520     9.1160     8.9080 hc         1 WRC       0.037589
     31 H3          18.6170    10.3230     9.8920 hc         1 WRC       0.037589
     32 H4          18.8390     6.5740    10.5130 hc         1 WRC       0.037589
     33 H5          17.2870     6.1750     9.7500 hc         1 WRC       0.037589
     34 H6          18.6420     6.7430     8.7580 hc         1 WRC       0.037589
     35 H7          15.7850     8.0700     8.8100 hc         1 WRC       0.037589
     36 H8          16.3640     9.7480     8.8400 hc         1 WRC       0.037589
     37 H9          17.1540     8.5580     7.7940 hc         1 WRC       0.037589
     38 H10         16.1490     7.7050    11.3310 hc         1 WRC       0.062700
     39 H11         17.6850     8.2080    12.0920 hc         1 WRC       0.062700
     40 H12         14.5160     9.0950    11.1320 hn         1 WRC       0.336500
     41 H13         14.7570    12.0010    11.3410 h1         1 WRC       0.084700
     42 H14         12.3520    12.9740    11.7270 hn         1 WRC       0.342500
     43 H15         10.6620    13.1050    10.0370 ho         1 WRC       0.445000
     44 H16         15.0990    13.1700    13.3540 ha         1 WRC       0.115000
     45 H17         14.7120    13.4850    15.7650 ha         1 WRC       0.118000
     46 H18         12.7900     9.5150    13.4560 ha         1 WRC       0.115000
     47 H19         12.4180     9.8140    15.8720 ha         1 WRC       0.118000
     48 H20         11.2800    11.0560    17.4940 ha         1 WRC       0.142500
     49 H21         15.2610    12.7200    17.9040 ha         1 WRC       0.142500
@<TRIPOS>BOND
     1     1     2 1   
     2     1    29 1   
     3     1    30 1   
     4     1    31 1   
     5     2     3 1   
     6     2     4 1   
     7     2     5 1   
     8     3    32 1   
     9     3    33 1   
    10     3    34 1   
    11     4    35 1   
    12     4    36 1   
    13     4    37 1   
    14     5     6 1   
    15     5    38 1   
    16     5    39 1   
    17     6     7 2   
    18     6     8 1   
    19     8     9 1   
    20     8    40 1   
    21     9    10 1   
    22     9    14 1   
    23     9    41 1   
    24    10    11 2   
    25    10    12 1   
    26    12    13 1   
    27    12    42 1   
    28    13    43 1   
    29    14    15 ar  
    30    14    17 ar  
    31    15    16 ar  
    32    15    44 1   
    33    16    19 ar  
    34    16    45 1   
    35    17    18 ar  
    36    17    46 1   
    37    18    19 ar  
    38    18    47 1   
    39    19    20 1   
    40    20    21 ar  
    41    20    28 ar  
    42    21    22 ar  
    43    21    48 1   
    44    22    23 1   
    45    22    24 ar  
    46    24    25 1   
    47    24    26 ar  
    48    26    27 1   
    49    26    28 ar  
    50    28    49 1   
@<TRIPOS>SUBSTRUCTURE
     1 WRC         1 TEMP              0 ****  ****    0 ROOT
