@<TRIPOS>MOLECULE
WRC
   49    50     1     0     0
SMALL
abcg2


@<TRIPOS>ATOM
      1 CAA         18.7350     9.0490     9.7140 c3         1 WRC      -0.087433
      2 CBB         17.4040     8.2980     9.7640 c3         1 WRC      -0.036000
      3 CAB         17.6490     6.8340     9.3930 c3         1 WRC      -0.087433
      4 CAC         16.4290     8.9120     8.7590 c3         1 WRC      -0.087433
      5 CAP         16.8040     8.3090    11.1890 c3         1 WRC      -0.150400
      6 CAS         16.3890     9.6750    11.6830 c          1 WRC       0.606100
      7 OAD         17.1810    10.5020    12.1100 o          1 WRC      -0.596100
      8 N           15.0650     9.9310    11.6030 ns         1 WRC      -0.508900
      9 CA          14.4990    11.1950    11.9800 c3         1 WRC       0.087000
     10 C           13.1640    11.3380    11.2460 c          1 WRC       0.596100
     11 O           12.3710    10.4180    11.1790 o          1 WRC      -0.569100
     12 NAQ         12.9700    12.5510    10.7130 ns         1 WRC      -0.383400
     13 OAF         11.7500    12.8890    10.2180 oh         1 WRC      -0.415100
     14 CAY         14.2230    11.3380    13.4660 ca         1 WRC      -0.088300
     15 CAM         14.0410    12.6060    14.0090 ca         1 WRC      -0.089000
     16 CAK         13.7210    12.7660    15.3460 ca         1 WRC      -0.089500
     17 CAL         14.0940    10.2340    14.2970 ca         1 WRC      -0.089000
     18 CAJ         13.7880    10.3940    15.6410 ca         1 WRC      -0.089500
     19 CAW         13.5860    11.6610    16.1880 cp         1 WRC      -0.037000
     20 CAX         13.2320    11.8320    17.6120 cp         1 WRC       0.013000
     21 CAN         12.4650    10.8690    18.2690 ca         1 WRC      -0.140500
     22 CAU         12.1340    11.0430    19.5960 ca         1 WRC       0.162000
     23 FAG         11.3980    10.1310    20.2310 f          1 WRC      -0.155000
     24 CAZ         12.5370    12.1640    20.2980 ca         1 WRC       0.087000
     25 FAI         12.2060    12.3210    21.5780 f          1 WRC      -0.142000
     26 CAV         13.2890    13.1180    19.6390 ca         1 WRC       0.162000
     27 FAH         13.6710    14.2000    20.3180 f          1 WRC      -0.155000
     28 CAO         13.6460    12.9630    18.3170 ca         1 WRC      -0.140500
     29 H1          19.4450     8.6440    10.4380 hc         1 WRC       0.037589
     30 H2          19.1800     8.9530     8.7210 hc         1 WRC       0.037589
     31 H3          18.6160    10.1120     9.9200 hc         1 WRC       0.037589
     32 H4          18.3430     6.3590    10.0900 hc         1 WRC       0.037589
     33 H5          16.7190     6.2610     9.4050 hc         1 WRC       0.037589
     34 H6          18.0780     6.7560     8.3920 hc         1 WRC       0.037589
     35 H7          15.4570     8.4150     8.7900 hc         1 WRC       0.037589
     36 H8          16.2670     9.9760     8.9400 hc         1 WRC       0.037589
     37 H9          16.8200     8.8120     7.7440 hc         1 WRC       0.037589
     38 H10         15.9480     7.6300    11.2070 hc         1 WRC       0.062700
     39 H11         17.5450     7.9100    11.8860 hc         1 WRC       0.062700
     40 H12         14.4330     9.2020    11.3080 hn         1 WRC       0.336500
     41 H13         15.1860    11.9900    11.6780 h1         1 WRC       0.084700
     42 H14         13.6140    13.3200    10.8390 hn         1 WRC       0.342500
     43 H15         11.7930    12.7370     9.2640 ho         1 WRC       0.445000
     44 H16         14.1430    13.4860    13.3840 ha         1 WRC       0.115000
     45 H17         13.5580    13.7670    15.7250 ha         1 WRC       0.118000
     46 H18         14.2470     9.2360    13.9080 ha         1 WRC       0.115000
     47 H19         13.7230     9.5130    16.2660 ha         1 WRC       0.118000
     48 H20         12.1000     9.9910    17.7530 ha         1 WRC       0.142500
     49 H21         14.2620    13.7220    17.8530 ha         1 WRC       0.142500
@<TRIPOS>BOND
     1     1     2 1   
     2     1    29 1   
     3     1    30 1   
     4     1    31 1   
     5     2     3 1   
     6     2     4 1   
     7     2     5 1   
     8     3    32 1   
     9     3    33 1   
    10     3    34 1   
    11     4    35 1   
    12     4    36 1   
    13     4    37 1   
    14     5     6 1   
    15     5    38 1   
    16     5    39 1   
    17     6     7 2   
    18     6     8 1   
    19     8     9 1   
    20     8    40 1   
    21     9    10 1   
    22     9    14 1   
    23     9    41 1   
    24    10    11 2   
    25    10    12 1   
    26    12    13 1   
    27    12    42 1   
    28    13    43 1   
    29    14    15 ar  
    30    14    17 ar  
    31    15    16 ar  
    32    15    44 1   
    33    16    19 ar  
    34    16    45 1   
    35    17    18 ar  
    36    17    46 1   
    37    18    19 ar  
    38    18    47 1   
    39    19    20 1   
    40    20    21 ar  
    41    20    28 ar  
    42    21    22 ar  
    43    21    48 1   
    44    22    23 1   
    45    22    24 ar  
    46    24    25 1   
    47    24    26 ar  
    48    26    27 1   
    49    26    28 ar  
    50    28    49 1   
@<TRIPOS>SUBSTRUCTURE
     1 WRC         1 TEMP              0 ****  ****    0 ROOT
