@<TRIPOS>MOLECULE
WRD
   25    26     1     0     0
SMALL
bcc


@<TRIPOS>ATOM
      1 N1           4.7640    22.5060    17.2500 n8         1 WRD      -0.877800
      2 C4           7.4350    21.3950    14.2500 ca         1 WRD      -0.101000
      3 C5           8.2060    22.3590    13.6210 ca         1 WRD      -0.161000
      4 C6           8.2590    23.6420    14.1530 ca         1 WRD       0.134100
      5 C7           7.5600    23.9740    15.3230 ca         1 WRD      -0.163300
      6 C8           7.6570    25.3830    15.8580 c6         1 WRD      -0.031100
      7 C10          5.7760    24.7900    17.3890 c6         1 WRD      -0.110400
      8 C1           5.9900    23.2910    17.2040 c6         1 WRD       0.199800
      9 C2           6.7710    22.9920    15.9350 ca         1 WRD      -0.036300
     10 C3           6.7180    21.7080    15.3920 ca         1 WRD      -0.143000
     11 C9           7.0940    25.5300    17.2640 c6         1 WRD      -0.064400
     12 H1           4.3180    22.6560    18.1470 hn         1 WRD       0.339300
     13 H2           4.1150    22.8580    16.5560 hn         1 WRD       0.339300
     14 H4           7.3910    20.3950    13.8390 ha         1 WRD       0.133000
     15 H5           8.7610    22.1290    12.7210 ha         1 WRD       0.145000
     16 H6           8.6990    25.7190    15.8660 hc         1 WRD       0.041200
     17 H7           7.1210    26.0630    15.1840 hc         1 WRD       0.041200
     18 H8           5.0650    25.1540    16.6380 hc         1 WRD       0.042200
     19 H9           5.3240    24.9690    18.3680 hc         1 WRD       0.042200
     20 H10          6.6050    22.9460    18.0460 h1         1 WRD       0.066700
     21 H11          6.1010    20.9590    15.8690 ha         1 WRD       0.153000
     22 H12          8.9890    25.4060    13.9110 ho         1 WRD       0.424000
     23 H13          7.8060    25.1240    17.9890 hc         1 WRD       0.044700
     24 H14          6.9760    26.5890    17.5020 hc         1 WRD       0.044700
     25 O1           9.0120    24.5440    13.4820 oh         1 WRD      -0.504100
@<TRIPOS>BOND
     1     1     8 1   
     2     1    12 1   
     3     1    13 1   
     4     2     3 ar  
     5     2    10 ar  
     6     2    14 1   
     7     3     4 ar  
     8     3    15 1   
     9     4     5 ar  
    10     4    25 1   
    11     5     6 1   
    12     5     9 ar  
    13     6    11 1   
    14     6    16 1   
    15     6    17 1   
    16     7     8 1   
    17     7    11 1   
    18     7    18 1   
    19     7    19 1   
    20     8     9 1   
    21     8    20 1   
    22     9    10 ar  
    23    10    21 1   
    24    11    23 1   
    25    11    24 1   
    26    22    25 1   
@<TRIPOS>SUBSTRUCTURE
     1 WRD         1 TEMP              0 ****  ****    0 ROOT
