@<TRIPOS>MOLECULE
WRD
   25    26     1     0     0
SMALL
No Charge or Current Charge


@<TRIPOS>ATOM
      1 N1           4.6540    22.6070    17.2300 n8         1 WRD      -0.988200
      2 C4           7.5070    21.3340    14.2390 ca         1 WRD      -0.083000
      3 C5           8.2450    22.3310    13.5880 ca         1 WRD      -0.143000
      4 C6           8.2740    23.6360    14.1010 ca         1 WRD       0.134100
      5 C7           7.5620    23.9640    15.2790 ca         1 WRD      -0.163300
      6 C8           7.6160    25.3990    15.8430 c6         1 WRD      -0.031100
      7 C10          5.7920    24.7660    17.4780 c6         1 WRD      -0.110400
      8 C1           5.9820    23.2560    17.2110 c6         1 WRD       0.199800
      9 C2           6.7870    22.9590    15.9240 ca         1 WRD      -0.036300
     10 C3           6.7840    21.6480    15.4000 ca         1 WRD      -0.125000
     11 C9           7.1240    25.5140    17.3010 c6         1 WRD      -0.064400
     12 H1           4.1470    22.9280    18.0610 hn         1 WRD       0.394500
     13 H2           4.1040    22.9840    16.4500 hn         1 WRD       0.394500
     14 H4           7.4910    20.3200    13.8440 ha         1 WRD       0.115000
     15 H5           8.8000    22.0910    12.6850 ha         1 WRD       0.127000
     16 H6           8.6410    25.7920    15.7960 hc         1 WRD       0.041200
     17 H7           7.0040    26.0530    15.2070 hc         1 WRD       0.041200
     18 H8           5.0450    25.1870    16.7900 hc         1 WRD       0.042200
     19 H9           5.4100    24.9240    18.4960 hc         1 WRD       0.042200
     20 H10          6.5570    22.8380    18.0530 h1         1 WRD       0.066700
     21 H11          6.2160    20.8650    15.8970 ha         1 WRD       0.135000
     22 H12          8.8870    25.4340    13.8970 ho         1 WRD       0.463000
     23 H13          7.8780    25.0980    17.9840 hc         1 WRD       0.044700
     24 H14          7.0050    26.5720    17.5720 hc         1 WRD       0.044700
     25 O1           9.0020    24.5780    13.4340 oh         1 WRD      -0.543100
@<TRIPOS>BOND
     1     1     8 1   
     2     1    12 1   
     3     1    13 1   
     4     2     3 ar  
     5     2    10 ar  
     6     2    14 1   
     7     3     4 ar  
     8     3    15 1   
     9     4     5 ar  
    10     4    25 1   
    11     5     6 1   
    12     5     9 ar  
    13     6    11 1   
    14     6    16 1   
    15     6    17 1   
    16     7     8 1   
    17     7    11 1   
    18     7    18 1   
    19     7    19 1   
    20     8     9 1   
    21     8    20 1   
    22     9    10 ar  
    23    10    21 1   
    24    11    23 1   
    25    11    24 1   
    26    22    25 1   
@<TRIPOS>SUBSTRUCTURE
     1 WRD         1 TEMP              0 ****  ****    0 ROOT
