@<TRIPOS>MOLECULE
WRE
   51    54     1     0     0
SMALL
No Charge or Current Charge


@<TRIPOS>ATOM
      1 O1          -9.5360    -2.1810    49.2580 o          1 WRE      -0.581100
      2 C7          -3.6700     0.9050    50.7990 ca         1 WRE       0.396900
      3 C6          -3.5010     2.4360    49.0780 ca         1 WRE       0.065300
      4 C1          -4.4090     1.6640    48.3280 ca         1 WRE      -0.239000
      5 N1          -7.2280    -1.1440    46.5430 nc         1 WRE      -0.517800
      6 C5          -4.9170     0.4900    48.9090 ca         1 WRE       0.280500
      7 C4          -5.8680    -0.3790    48.2030 cd         1 WRE      -0.299500
      8 C3          -6.4180    -1.5400    48.6800 cc         1 WRE      -0.073000
      9 C2          -6.3950    -0.1880    46.9060 cd         1 WRE       0.287900
     10 C8          -9.2570    -3.1750    48.5960 c          1 WRE       0.585100
     11 C9          -2.7030    -0.0240    53.9820 cy         1 WRE      -0.118400
     12 C10         -2.6500     1.3020    53.1610 cy         1 WRE       0.225800
     13 C11        -11.7810    -5.7730    49.9880 c6         1 WRE       0.129800
     14 C12        -10.6460    -6.7810    48.0900 c6         1 WRE       0.129800
     15 C13        -11.2030    -4.3710    49.6550 c6         1 WRE       0.059500
     16 C14        -10.0100    -5.4230    47.6800 c6         1 WRE       0.059500
     17 C15         -3.8320    -0.4980    53.0050 cy         1 WRE       0.237500
     18 C16         -3.8130    -1.9690    52.5670 c3         1 WRE      -0.091100
     19 C17         -8.0550    -3.1990    47.6350 c3         1 WRE       0.007600
     20 N2          -4.5440     0.1140    50.1470 nb         1 WRE      -0.247000
     21 N3          -3.1340     2.0460    50.3190 nb         1 WRE      -0.218000
     22 N4          -7.2440    -1.9710    47.6470 na         1 WRE       0.126800
     23 N5         -11.9460    -6.6080    48.7760 n7         1 WRE      -0.842400
     24 N6          -3.2880     0.5210    52.0670 nn         1 WRE      -0.771300
     25 N7         -10.0070    -4.3680    48.7500 n          1 WRE      -0.414800
     26 F1          -2.1090     3.4790    47.4440 f          1 WRE      -0.105333
     27 F2          -3.8600     4.5850    48.0990 f          1 WRE      -0.105333
     28 F3          -2.1400     4.4010    49.4120 f          1 WRE      -0.105333
     29 H1          -4.7030     1.9740    47.3300 ha         1 WRE       0.148000
     30 H2          -6.3050    -2.0710    49.6180 h4         1 WRE       0.167000
     31 H3          -6.1930     0.6190    46.2130 h4         1 WRE       0.043100
     32 H4          -2.9960     0.0770    55.0310 hc         1 WRE       0.063200
     33 H5          -1.7830    -0.6150    53.9270 hc         1 WRE       0.063200
     34 H6          -1.6320     1.6640    52.9680 h1         1 WRE       0.064200
     35 H7          -3.2710     2.1070    53.5740 h1         1 WRE       0.064200
     36 H8         -12.7490    -5.6570    50.4990 h1         1 WRE       0.064200
     37 H9         -11.1020    -6.2810    50.6910 h1         1 WRE       0.064200
     38 H10        -10.7740    -7.4090    47.1950 h1         1 WRE       0.064200
     39 H11         -9.9500    -7.3110    48.7600 h1         1 WRE       0.064200
     40 H12        -10.9480    -3.8720    50.6010 h1         1 WRE       0.060450
     41 H13        -11.9930    -3.7710    49.1810 h1         1 WRE       0.060450
     42 H14        -10.5580    -5.0290    46.8120 h1         1 WRE       0.060450
     43 H15         -8.9840    -5.6280    47.3460 h1         1 WRE       0.060450
     44 H16         -4.8320    -0.2450    53.3790 h1         1 WRE       0.060700
     45 H17         -4.0150    -2.6290    53.4190 hc         1 WRE       0.047367
     46 H18         -4.5770    -2.1640    51.8060 hc         1 WRE       0.047367
     47 H19         -2.8380    -2.2460    52.1480 hc         1 WRE       0.047367
     48 H20         -8.4330    -3.3740    46.6220 h1         1 WRE       0.083700
     49 H21         -7.4140    -4.0420    47.9150 h1         1 WRE       0.083700
     50 H22        -12.5940    -6.1310    48.1360 hn         1 WRE       0.406000
     51 C18         -2.8990     3.7290    48.5130 c3         1 WRE       0.250700
@<TRIPOS>BOND
     1     1    10 2   
     2     2    20 ar  
     3     2    21 ar  
     4     2    24 1   
     5     3     4 ar  
     6     3    21 ar  
     7     3    51 1   
     8     4     6 ar  
     9     4    29 1   
    10     5     9 2   
    11     5    22 1   
    12     6     7 1   
    13     6    20 ar  
    14     7     8 2   
    15     7     9 1   
    16     8    22 1   
    17     8    30 1   
    18     9    31 1   
    19    10    19 1   
    20    10    25 1   
    21    11    12 1   
    22    11    17 1   
    23    11    32 1   
    24    11    33 1   
    25    12    24 1   
    26    12    34 1   
    27    12    35 1   
    28    13    15 1   
    29    13    23 1   
    30    13    36 1   
    31    13    37 1   
    32    14    16 1   
    33    14    23 1   
    34    14    38 1   
    35    14    39 1   
    36    15    25 1   
    37    15    40 1   
    38    15    41 1   
    39    16    25 1   
    40    16    42 1   
    41    16    43 1   
    42    17    18 1   
    43    17    24 1   
    44    17    44 1   
    45    18    45 1   
    46    18    46 1   
    47    18    47 1   
    48    19    22 1   
    49    19    48 1   
    50    19    49 1   
    51    23    50 1   
    52    26    51 1   
    53    27    51 1   
    54    28    51 1   
@<TRIPOS>SUBSTRUCTURE
     1 WRE         1 TEMP              0 ****  ****    0 ROOT
