@<TRIPOS>MOLECULE
WRE
   51    54     1     0     0
SMALL
abcg2


@<TRIPOS>ATOM
      1 O1          -9.5440    -2.0010    48.7970 o          1 WRE      -0.581100
      2 C7          -3.6820     0.7420    50.7780 ca         1 WRE       0.396900
      3 C6          -3.7890     2.3900    49.2320 ca         1 WRE       0.065300
      4 C1          -4.6100     1.6400    48.4200 ca         1 WRE      -0.239000
      5 N1          -7.2500    -1.3130    46.5780 nc         1 WRE      -0.517800
      6 C5          -4.9620     0.3670    48.9100 ca         1 WRE       0.280500
      7 C4          -5.8600    -0.5050    48.1740 cd         1 WRE      -0.299500
      8 C3          -6.3330    -1.7480    48.5760 cc         1 WRE      -0.073000
      9 C2          -6.4740    -0.2950    46.9140 cd         1 WRE       0.287900
     10 C8          -9.3240    -3.0990    48.2860 c          1 WRE       0.585100
     11 C9          -3.0080    -0.1320    53.9960 cy         1 WRE      -0.118400
     12 C10         -2.6480     1.0510    53.0630 cy         1 WRE       0.225800
     13 C11        -11.7270    -5.0270    49.9680 c6         1 WRE       0.129800
     14 C12        -10.2200    -6.5010    48.7850 c6         1 WRE       0.129800
     15 C13        -11.5280    -3.9460    48.9050 c6         1 WRE       0.059500
     16 C14        -10.0000    -5.4360    47.7080 c6         1 WRE       0.059500
     17 C15         -3.6970    -0.8210    52.7860 cy         1 WRE       0.237500
     18 C16         -3.2230    -2.2090    52.4130 c3         1 WRE      -0.091100
     19 C17         -7.9640    -3.3780    47.6220 c3         1 WRE       0.007600
     20 N2          -4.4980    -0.0720    50.0800 nb         1 WRE      -0.247000
     21 N3          -3.3120     1.9820    50.4030 nb         1 WRE      -0.218000
     22 N4          -7.1430    -2.1940    47.6030 na         1 WRE       0.126800
     23 N5         -11.5100    -6.3850    49.4650 n7         1 WRE      -0.842400
     24 N6          -3.1910     0.2790    51.9400 nn         1 WRE      -0.771300
     25 N7         -10.2180    -4.1040    48.2720 n          1 WRE      -0.414800
     26 F1          -3.8290     4.1590    47.6370 f          1 WRE      -0.105333
     27 F2          -3.8460     4.7020    49.7360 f          1 WRE      -0.105333
     28 F3          -2.0330     3.9330    48.8300 f          1 WRE      -0.105333
     29 H1          -4.9740     2.0120    47.4760 ha         1 WRE       0.148000
     30 H2          -6.1500    -2.3190    49.4700 h4         1 WRE       0.167000
     31 H3          -6.3700     0.5450    46.2460 h4         1 WRE       0.043100
     32 H4          -3.6640     0.1150    54.8250 hc         1 WRE       0.063200
     33 H5          -2.1420    -0.6810    54.3610 hc         1 WRE       0.063200
     34 H6          -1.5890     1.2890    52.9670 h1         1 WRE       0.064200
     35 H7          -3.2070     1.9700    53.2520 h1         1 WRE       0.064200
     36 H8         -12.7370    -4.9540    50.3740 h1         1 WRE       0.064200
     37 H9         -11.0230    -4.8510    50.7870 h1         1 WRE       0.064200
     38 H10        -10.1430    -7.4910    48.3330 h1         1 WRE       0.064200
     39 H11         -9.4280    -6.4120    49.5350 h1         1 WRE       0.064200
     40 H12        -11.5840    -2.9510    49.3380 h1         1 WRE       0.060450
     41 H13        -12.2980    -4.0380    48.1310 h1         1 WRE       0.060450
     42 H14        -10.7140    -5.5840    46.8910 h1         1 WRE       0.060450
     43 H15         -8.9990    -5.5240    47.2960 h1         1 WRE       0.060450
     44 H16         -4.7890    -0.7930    52.8460 h1         1 WRE       0.060700
     45 H17         -3.5290    -2.9210    53.1840 hc         1 WRE       0.047367
     46 H18         -3.6520    -2.5260    51.4620 hc         1 WRE       0.047367
     47 H19         -2.1340    -2.2330    52.3340 hc         1 WRE       0.047367
     48 H20         -8.0950    -3.7080    46.5930 h1         1 WRE       0.083700
     49 H21         -7.4360    -4.1590    48.1690 h1         1 WRE       0.083700
     50 H22        -12.2530    -6.6190    48.8110 hn         1 WRE       0.406000
     51 C18         -3.3740     3.7980    48.8510 c3         1 WRE       0.250700
@<TRIPOS>BOND
     1     1    10 2   
     2     2    20 ar  
     3     2    21 ar  
     4     2    24 1   
     5     3     4 ar  
     6     3    21 ar  
     7     3    51 1   
     8     4     6 ar  
     9     4    29 1   
    10     5     9 2   
    11     5    22 1   
    12     6     7 1   
    13     6    20 ar  
    14     7     8 2   
    15     7     9 1   
    16     8    22 1   
    17     8    30 1   
    18     9    31 1   
    19    10    19 1   
    20    10    25 1   
    21    11    12 1   
    22    11    17 1   
    23    11    32 1   
    24    11    33 1   
    25    12    24 1   
    26    12    34 1   
    27    12    35 1   
    28    13    15 1   
    29    13    23 1   
    30    13    36 1   
    31    13    37 1   
    32    14    16 1   
    33    14    23 1   
    34    14    38 1   
    35    14    39 1   
    36    15    25 1   
    37    15    40 1   
    38    15    41 1   
    39    16    25 1   
    40    16    42 1   
    41    16    43 1   
    42    17    18 1   
    43    17    24 1   
    44    17    44 1   
    45    18    45 1   
    46    18    46 1   
    47    18    47 1   
    48    19    22 1   
    49    19    48 1   
    50    19    49 1   
    51    23    50 1   
    52    26    51 1   
    53    27    51 1   
    54    28    51 1   
@<TRIPOS>SUBSTRUCTURE
     1 WRE         1 TEMP              0 ****  ****    0 ROOT
