@<TRIPOS>MOLECULE
WRF
   25    26     1     0     0
SMALL
No Charge or Current Charge


@<TRIPOS>ATOM
      1 C01        103.9590   113.1270   105.7210 c3         1 WRF       0.021900
      2 C03        103.1100   111.4930   107.3990 ca         1 WRF      -0.002300
      3 C04        102.9380   110.1760   107.8660 ca         1 WRF      -0.135000
      4 C05        103.4360   109.0720   107.1320 cp         1 WRF       0.133000
      5 C06        104.1120   109.3470   105.9180 ca         1 WRF      -0.135000
      6 C07        104.2750   110.6700   105.4630 ca         1 WRF      -0.053000
      7 C08        103.2580   107.6680   107.6230 cp         1 WRF      -0.121000
      8 C09        102.0780   107.2740   108.3050 ca         1 WRF      -0.063000
      9 C10        101.9110   105.9560   108.7650 ca         1 WRF      -0.105000
     10 C11        102.9200   105.0030   108.5550 ca         1 WRF      -0.048000
     11 C12        104.0970   105.3700   107.8820 ca         1 WRF      -0.105000
     12 C13        104.2640   106.6870   107.4210 ca         1 WRF      -0.063000
     13 N02        103.7710   111.7460   106.1960 na         1 WRF       0.036300
     14 H013       103.1230   113.7560   106.0510 h1         1 WRF       0.093033
     15 H011       104.8950   113.5290   106.1260 h1         1 WRF       0.093033
     16 H012       104.0010   113.1470   104.6250 h1         1 WRF       0.093033
     17 H031       102.7380   112.3480   107.9660 h4         1 WRF       0.180000
     18 H041       102.4300   110.0140   108.8130 ha         1 WRF       0.174000
     19 H061       104.5010   108.5290   105.3160 ha         1 WRF       0.174000
     20 H071       104.7930   110.8870   104.5270 h4         1 WRF       0.180000
     21 H091       101.2770   107.9910   108.4680 ha         1 WRF       0.118000
     22 H101       100.9970   105.6730   109.2830 ha         1 WRF       0.139000
     23 H111       102.7910   103.9830   108.9110 ha         1 WRF       0.140000
     24 H121       104.8820   104.6340   107.7200 ha         1 WRF       0.139000
     25 H131       105.1900   106.9510   106.9150 ha         1 WRF       0.118000
@<TRIPOS>BOND
     1     1    13 1   
     2     1    14 1   
     3     1    15 1   
     4     1    16 1   
     5     2     3 ar  
     6     2    13 2   
     7     2    17 1   
     8     3     4 ar  
     9     3    18 1   
    10     4     5 ar  
    11     4     7 1   
    12     5     6 ar  
    13     5    19 1   
    14     6    13 1   
    15     6    20 1   
    16     7     8 ar  
    17     7    12 ar  
    18     8     9 ar  
    19     8    21 1   
    20     9    10 ar  
    21     9    22 1   
    22    10    11 ar  
    23    10    23 1   
    24    11    12 ar  
    25    11    24 1   
    26    12    25 1   
@<TRIPOS>SUBSTRUCTURE
     1 WRF         1 TEMP              0 ****  ****    0 ROOT
