@<TRIPOS>MOLECULE
WRF
   25    26     1     0     0
SMALL
abcg2


@<TRIPOS>ATOM
      1 C01        103.9500   113.0490   105.7390 c3         1 WRF       0.021900
      2 C03        103.0400   111.4330   107.3430 ca         1 WRF      -0.002300
      3 C04        102.8620   110.1530   107.8090 ca         1 WRF      -0.135000
      4 C05        103.4370   109.0660   107.1390 cp         1 WRF       0.133000
      5 C06        104.1900   109.3560   105.9910 ca         1 WRF      -0.135000
      6 C07        104.3390   110.6510   105.5660 ca         1 WRF      -0.053000
      7 C08        103.2600   107.6860   107.6160 cp         1 WRF      -0.121000
      8 C09        102.1050   107.3180   108.3180 ca         1 WRF      -0.063000
      9 C10        101.9380   106.0150   108.7650 ca         1 WRF      -0.105000
     10 C11        102.9270   105.0630   108.5300 ca         1 WRF      -0.048000
     11 C12        104.0820   105.4210   107.8400 ca         1 WRF      -0.105000
     12 C13        104.2450   106.7190   107.3800 ca         1 WRF      -0.063000
     13 N02        103.7690   111.6730   106.2370 na         1 WRF       0.036300
     14 H013       103.4250   113.7340   106.3970 h1         1 WRF       0.093033
     15 H011       105.0120   113.2820   105.7270 h1         1 WRF       0.093033
     16 H012       103.5420   113.1140   104.7320 h1         1 WRF       0.093033
     17 H031       102.6170   112.2930   107.8390 h4         1 WRF       0.180000
     18 H041       102.2860   110.0150   108.7120 ha         1 WRF       0.174000
     19 H061       104.6480   108.5710   105.4090 ha         1 WRF       0.174000
     20 H071       104.9050   110.9140   104.6850 h4         1 WRF       0.180000
     21 H091       101.3210   108.0420   108.4930 ha         1 WRF       0.118000
     22 H101       101.0350   105.7410   109.2940 ha         1 WRF       0.139000
     23 H111       102.7990   104.0480   108.8840 ha         1 WRF       0.140000
     24 H121       104.8580   104.6880   107.6630 ha         1 WRF       0.139000
     25 H131       105.1550   106.9870   106.8590 ha         1 WRF       0.118000
@<TRIPOS>BOND
     1     1    13 1   
     2     1    14 1   
     3     1    15 1   
     4     1    16 1   
     5     2     3 ar  
     6     2    13 2   
     7     2    17 1   
     8     3     4 ar  
     9     3    18 1   
    10     4     5 ar  
    11     4     7 1   
    12     5     6 ar  
    13     5    19 1   
    14     6    13 1   
    15     6    20 1   
    16     7     8 ar  
    17     7    12 ar  
    18     8     9 ar  
    19     8    21 1   
    20     9    10 ar  
    21     9    22 1   
    22    10    11 ar  
    23    10    23 1   
    24    11    12 ar  
    25    11    24 1   
    26    12    25 1   
@<TRIPOS>SUBSTRUCTURE
     1 WRF         1 TEMP              0 ****  ****    0 ROOT
