@<TRIPOS>MOLECULE
WRG
   60    60     1     0     0
SMALL
No Charge or Current Charge


@<TRIPOS>ATOM
      1 CAW         -0.2980    -2.5770    -1.5190 c          1 WRG       0.613100
      2 OAE         -0.1400    -1.9180    -2.5360 o          1 WRG      -0.593100
      3 CAB         -0.2210    -4.0990    -1.5230 c3         1 WRG      -0.186100
      4 CAA          9.9180    -0.9820     0.9410 c3         1 WRG       0.112300
      5 NH1          5.5970     1.9760    -0.7220 n2         1 WRG      -0.833100
      6 OAG          8.2400     0.3710    -0.9360 o          1 WRG      -0.586100
      7 CD           3.0010     0.7600    -0.4480 c3         1 WRG       0.204800
      8 CB           0.4670     0.3000    -0.4600 c3         1 WRG      -0.073400
      9 NAS          8.4990    -0.6510     1.0820 ns         1 WRG      -0.537900
     10 NE           4.2950     0.2850     0.0700 nu         1 WRG      -0.957400
     11 NH2          6.4710     0.1840     0.4990 ns         1 WRG      -0.470400
     12 N           -0.5550    -2.0290    -0.2770 ns         1 WRG      -0.487900
     13 CZ           5.5040     0.8350    -0.1990 c2         1 WRG       0.680800
     14 CAZ          7.7670     0.0070     0.1280 c          1 WRG       0.670100
     15 C           -2.1190    -0.0380    -0.3800 c          1 WRG       0.577100
     16 CA          -0.7080    -0.5850     0.0530 c3         1 WRG       0.037700
     17 NBE         -2.6060     1.1640     0.2140 n          1 WRG      -0.356800
     18 CBD         -3.8920     1.7880    -0.2530 c3         1 WRG      -0.042300
     19 CAY         -3.7540     3.3110    -0.5660 c          1 WRG       0.719000
     20 OAF         -3.2860     3.6280    -1.6520 o          1 WRG      -0.715000
     21 CAR         -5.0880     1.4780     0.6940 c3         1 WRG      -0.042100
     22 CBB         -5.3100    -0.0160     0.9080 ca         1 WRG      -0.048300
     23 CAN         -5.9990    -0.7770    -0.0560 ca         1 WRG      -0.107000
     24 CAL         -6.1980    -2.1550     0.1360 ca         1 WRG      -0.122000
     25 CAJ         -5.7090    -2.7810     1.2950 ca         1 WRG      -0.144000
     26 CAK         -5.0220    -2.0280     2.2610 ca         1 WRG      -0.122000
     27 CAM         -4.8240    -0.6500     2.0700 ca         1 WRG      -0.107000
     28 OAI         -4.1370     4.1320     0.2570 o          1 WRG      -0.715000
     29 HAB         -1.1490    -4.5050    -1.1040 hc         1 WRG       0.053033
     30 HABA        -0.0130    -4.5100    -2.5170 hc         1 WRG       0.053033
     31 HABB         0.5270    -4.4200    -0.7880 hc         1 WRG       0.053033
     32 HAA         10.5010    -0.0620     0.8090 h1         1 WRG       0.036367
     33 HAAA        10.2640    -1.5040     1.8420 h1         1 WRG       0.036367
     34 HAAB        10.0600    -1.6330     0.0680 h1         1 WRG       0.036367
     35 HNH1         4.6480     2.2360    -1.0030 hn         1 WRG       0.395400
     36 HG           2.0560    -1.1790    -0.3080 hc         1 WRG       0.043700
     37 HGA          1.8590    -0.1800     1.1340 hc         1 WRG       0.043700
     38 HD           2.8090     1.7850    -0.1020 h1         1 WRG       0.044700
     39 HDA          3.0140     0.7660    -1.5470 h1         1 WRG       0.044700
     40 HB           0.3130     1.3360    -0.1440 hc         1 WRG       0.071200
     41 HBA          0.4620     0.3310    -1.5560 hc         1 WRG       0.071200
     42 HNAS         8.0260    -0.9180     1.9360 hn         1 WRG       0.307500
     43 HNE          4.3290    -0.6830     0.3780 hn         1 WRG       0.463000
     44 HNH2         6.1960    -0.1980     1.3860 hn         1 WRG       0.311500
     45 HN          -0.6750    -2.6960     0.4760 hn         1 WRG       0.302500
     46 HA          -0.6830    -0.5400     1.1470 h1         1 WRG       0.050700
     47 HAC         -1.0550     2.1540     1.2890 h1         1 WRG       0.030700
     48 HACA        -2.6860     2.4500     1.9140 h1         1 WRG       0.030700
     49 HACB        -1.9170     0.8780     2.2060 h1         1 WRG       0.030700
     50 HBD         -4.1550     1.3490    -1.2220 h1         1 WRG       0.076700
     51 HAR         -4.9380     1.9750     1.6600 hc         1 WRG       0.058200
     52 HARA        -5.9960     1.9240     0.2700 hc         1 WRG       0.058200
     53 HAN         -6.3760    -0.3000    -0.9580 ha         1 WRG       0.114000
     54 HAL         -6.7290    -2.7370    -0.6130 ha         1 WRG       0.097500
     55 HAJ         -5.8610    -3.8480     1.4430 ha         1 WRG       0.094000
     56 HAK         -4.6420    -2.5110     3.1590 ha         1 WRG       0.097500
     57 HAM         -4.2900    -0.0750     2.8230 ha         1 WRG       0.114000
     58 CG           1.8610    -0.1570     0.0370 c3         1 WRG      -0.078400
     59 CAC         -2.0290     1.6890     1.4760 c3         1 WRG       0.103300
     60 O           -2.7730    -0.6100    -1.2470 o          1 WRG      -0.615100
@<TRIPOS>BOND
     1     1     2 2   
     2     1     3 1   
     3     1    12 1   
     4     3    29 1   
     5     3    30 1   
     6     3    31 1   
     7     4     9 1   
     8     4    32 1   
     9     4    33 1   
    10     4    34 1   
    11     5    13 2   
    12     5    35 1   
    13     6    14 2   
    14     7    10 1   
    15     7    38 1   
    16     7    39 1   
    17     7    58 1   
    18     8    16 1   
    19     8    40 1   
    20     8    41 1   
    21     8    58 1   
    22     9    14 1   
    23     9    42 1   
    24    10    13 1   
    25    10    43 1   
    26    11    13 1   
    27    11    14 1   
    28    11    44 1   
    29    12    16 1   
    30    12    45 1   
    31    15    16 1   
    32    15    17 1   
    33    15    60 2   
    34    16    46 1   
    35    17    18 1   
    36    17    59 1   
    37    18    19 1   
    38    18    21 1   
    39    18    50 1   
    40    19    20 1   
    41    19    28 1   
    42    21    22 1   
    43    21    51 1   
    44    21    52 1   
    45    22    23 ar  
    46    22    27 ar  
    47    23    24 ar  
    48    23    53 1   
    49    24    25 ar  
    50    24    54 1   
    51    25    26 ar  
    52    25    55 1   
    53    26    27 ar  
    54    26    56 1   
    55    27    57 1   
    56    36    58 1   
    57    37    58 1   
    58    47    59 1   
    59    48    59 1   
    60    49    59 1   
@<TRIPOS>SUBSTRUCTURE
     1 WRG         1 TEMP              0 ****  ****    0 ROOT
