@<TRIPOS>MOLECULE
WRG
   60    60     1     0     0
SMALL
abcg2


@<TRIPOS>ATOM
      1 CAW         -0.7020    -2.4030    -1.4430 c          1 WRG       0.613100
      2 OAE         -0.1360    -1.9050    -2.4020 o          1 WRG      -0.593100
      3 CAB         -1.2060    -3.8280    -1.4620 c3         1 WRG      -0.186100
      4 CAA          9.8190    -1.0180     0.8830 c3         1 WRG       0.112300
      5 NH1          5.4790     1.8390    -0.1240 n2         1 WRG      -0.833100
      6 OAG          8.0500     0.5540    -0.5620 o          1 WRG      -0.586100
      7 CD           2.8490     0.6180    -0.2350 c3         1 WRG       0.204800
      8 CB           0.3650     0.3760    -0.5110 c3         1 WRG      -0.073400
      9 NAS          8.3970    -0.9240     1.1090 ns         1 WRG      -0.537900
     10 NE           4.0500    -0.0140     0.2660 nu         1 WRG      -0.957400
     11 NH2          6.2800    -0.1770     0.7110 ns         1 WRG      -0.470400
     12 N           -0.9270    -1.7660    -0.2720 ns         1 WRG      -0.487900
     13 CZ           5.2580     0.6350     0.2240 c2         1 WRG       0.680800
     14 CAZ          7.6150    -0.1200     0.3550 c          1 WRG       0.670100
     15 C           -2.1760     0.2800    -0.6590 c          1 WRG       0.577100
     16 CA          -0.9060    -0.3380    -0.0500 c3         1 WRG       0.037700
     17 NBE         -2.6930     1.3730    -0.0610 n          1 WRG      -0.356800
     18 CBD         -4.0470     1.7870    -0.3970 c3         1 WRG      -0.042300
     19 CAY         -4.1550     3.2990    -0.7070 c          1 WRG       0.719000
     20 OAF         -3.1350     3.8520    -1.1550 o          1 WRG      -0.715000
     21 CAR         -5.0230     1.2990     0.6890 c3         1 WRG      -0.042100
     22 CBB         -4.8190    -0.1620     0.9780 ca         1 WRG      -0.048300
     23 CAN         -5.3540    -1.1350     0.1360 ca         1 WRG      -0.107000
     24 CAL         -5.0810    -2.4800     0.3310 ca         1 WRG      -0.122000
     25 CAJ         -4.2630    -2.8820     1.3790 ca         1 WRG      -0.144000
     26 CAK         -3.7320    -1.9260     2.2350 ca         1 WRG      -0.122000
     27 CAM         -4.0110    -0.5790     2.0330 ca         1 WRG      -0.107000
     28 OAI         -5.2740     3.8140    -0.5280 o          1 WRG      -0.715000
     29 HAB         -2.2740    -3.8250    -1.6910 hc         1 WRG       0.053033
     30 HABA        -0.6950    -4.4020    -2.2320 hc         1 WRG       0.053033
     31 HABB        -1.0790    -4.3290    -0.5030 hc         1 WRG       0.053033
     32 HAA         10.3440    -0.0910     1.1250 h1         1 WRG       0.036367
     33 HAAA        10.2110    -1.8060     1.5190 h1         1 WRG       0.036367
     34 HAAB        10.0410    -1.2760    -0.1510 h1         1 WRG       0.036367
     35 HNH1         4.6460     2.2650    -0.5140 hn         1 WRG       0.395400
     36 HG           1.7760    -1.2420    -0.3000 hc         1 WRG       0.043700
     37 HGA          1.5260    -0.3150     1.1710 hc         1 WRG       0.043700
     38 HD           2.7410     1.5970     0.2380 h1         1 WRG       0.044700
     39 HDA          2.9090     0.7920    -1.3170 h1         1 WRG       0.044700
     40 HB           0.2870     1.4190    -0.1940 hc         1 WRG       0.071200
     41 HBA          0.4260     0.3850    -1.5980 hc         1 WRG       0.071200
     42 HNAS         8.0260    -1.3540     1.9390 hn         1 WRG       0.307500
     43 HNE          4.0910    -1.0130     0.1270 hn         1 WRG       0.463000
     44 HNH2         5.9970    -0.9220     1.3300 hn         1 WRG       0.311500
     45 HN          -1.4960    -2.2690     0.3920 hn         1 WRG       0.302500
     46 HA          -0.9530    -0.2370     1.0360 h1         1 WRG       0.050700
     47 HAC         -1.3080     2.8100     0.6330 h1         1 WRG       0.030700
     48 HACA        -2.7780     2.6520     1.5800 h1         1 WRG       0.030700
     49 HACB        -1.5420     1.4330     1.7190 h1         1 WRG       0.030700
     50 HBD         -4.3110     1.2730    -1.3230 h1         1 WRG       0.076700
     51 HAR         -4.8990     1.8840     1.6050 hc         1 WRG       0.058200
     52 HARA        -6.0400     1.4840     0.3420 hc         1 WRG       0.058200
     53 HAN         -5.9780    -0.8310    -0.6970 ha         1 WRG       0.114000
     54 HAL         -5.5030    -3.2170    -0.3410 ha         1 WRG       0.097500
     55 HAJ         -4.0450    -3.9320     1.5320 ha         1 WRG       0.094000
     56 HAK         -3.1020    -2.2270     3.0620 ha         1 WRG       0.097500
     57 HAM         -3.5890     0.1590     2.7070 ha         1 WRG       0.114000
     58 CG           1.6290    -0.2300     0.0850 c3         1 WRG      -0.078400
     59 CAC         -2.0380     2.0940     1.0110 c3         1 WRG       0.103300
     60 O           -2.6930    -0.2560    -1.6290 o          1 WRG      -0.615100
@<TRIPOS>BOND
     1     1     2 2   
     2     1     3 1   
     3     1    12 1   
     4     3    29 1   
     5     3    30 1   
     6     3    31 1   
     7     4     9 1   
     8     4    32 1   
     9     4    33 1   
    10     4    34 1   
    11     5    13 2   
    12     5    35 1   
    13     6    14 2   
    14     7    10 1   
    15     7    38 1   
    16     7    39 1   
    17     7    58 1   
    18     8    16 1   
    19     8    40 1   
    20     8    41 1   
    21     8    58 1   
    22     9    14 1   
    23     9    42 1   
    24    10    13 1   
    25    10    43 1   
    26    11    13 1   
    27    11    14 1   
    28    11    44 1   
    29    12    16 1   
    30    12    45 1   
    31    15    16 1   
    32    15    17 1   
    33    15    60 2   
    34    16    46 1   
    35    17    18 1   
    36    17    59 1   
    37    18    19 1   
    38    18    21 1   
    39    18    50 1   
    40    19    20 1   
    41    19    28 1   
    42    21    22 1   
    43    21    51 1   
    44    21    52 1   
    45    22    23 ar  
    46    22    27 ar  
    47    23    24 ar  
    48    23    53 1   
    49    24    25 ar  
    50    24    54 1   
    51    25    26 ar  
    52    25    55 1   
    53    26    27 ar  
    54    26    56 1   
    55    27    57 1   
    56    36    58 1   
    57    37    58 1   
    58    47    59 1   
    59    48    59 1   
    60    49    59 1   
@<TRIPOS>SUBSTRUCTURE
     1 WRG         1 TEMP              0 ****  ****    0 ROOT
