@<TRIPOS>MOLECULE
WRH
   61    61     1     0     0
SMALL
abcg2


@<TRIPOS>ATOM
      1 N1          12.3520   -18.5400     0.0160 ns         1 WRH      -0.482900
      2 C4          13.9710   -21.6490    -0.4670 c3         1 WRH       0.095300
      3 C5          13.7640   -20.2260    -0.9860 c3         1 WRH      -0.170400
      4 C6          12.3800   -19.7230    -0.6220 c          1 WRH       0.601100
      5 C7          11.1390   -17.8630     0.4200 c3         1 WRH       0.038700
      6 C8          10.9170   -17.9160     1.9560 c3         1 WRH      -0.064700
      7 C10         12.0510   -17.2250     2.7240 c3         1 WRH      -0.079400
      8 C13          8.6720   -16.2370     0.0850 c5         1 WRH       0.108000
      9 C15          8.5670   -13.9180    -0.4840 c5         1 WRH      -0.082400
     10 C1          18.5590   -22.1410     0.2450 c3         1 WRH      -0.097400
     11 C2          17.4910   -23.1190    -0.2430 c3         1 WRH       0.100000
     12 N2          10.0390   -15.7350    -0.1210 n          1 WRH      -0.404800
     13 C3          15.3130   -22.1920    -0.9640 c          1 WRH       0.592100
     14 C9          10.6990   -19.3610     2.4020 c3         1 WRH      -0.086100
     15 C11         11.7560   -17.0380     4.2120 c3         1 WRH      -0.085100
     16 C12         11.1950   -16.4200    -0.0760 c          1 WRH       0.596100
     17 O1          11.3710   -20.3770    -0.8920 o          1 WRH      -0.629100
     18 O2          12.2680   -15.8910    -0.3790 o          1 WRH      -0.614100
     19 O3          10.9890   -13.6710     1.6030 o          1 WRH      -0.478000
     20 C14          7.8270   -15.2400    -0.7010 c5         1 WRH      -0.095400
     21 O4          11.4490   -12.4610    -0.2360 os         1 WRH      -0.442100
     22 C16         10.0520   -14.3310    -0.5290 c5         1 WRH       0.049700
     23 N           16.1420   -22.6260    -0.0100 ns         1 WRH      -0.490900
     24 C           18.5490   -20.8100    -0.5020 c3         1 WRH      -0.087100
     25 O           15.5570   -22.2060    -2.1740 o          1 WRH      -0.616100
     26 C17         10.8910   -13.4850     0.4130 c          1 WRH       0.591100
     27 C18         12.2040   -11.5260     0.5640 c3         1 WRH       0.152900
     28 O5          13.9160   -21.6750     0.9590 oh         1 WRH      -0.683000
     29 H1          13.2150   -18.0330     0.1310 hn         1 WRH       0.336500
     30 H2          13.1970   -22.2970    -0.8830 h1         1 WRH       0.081700
     31 H3          14.5440   -19.5770    -0.5840 hc         1 WRH       0.084700
     32 H4          13.8480   -20.2290    -2.0740 hc         1 WRH       0.084700
     33 H5          10.3140   -18.3860    -0.0600 h1         1 WRH       0.090700
     34 H6           9.9970   -17.3580     2.1530 hc         1 WRH       0.052700
     35 H7          12.9720   -17.8040     2.6030 hc         1 WRH       0.049700
     36 H8          12.2390   -16.2440     2.2820 hc         1 WRH       0.049700
     37 H9           8.4150   -16.2120     1.1470 h1         1 WRH       0.057700
     38 H10          8.5730   -17.2590    -0.2730 h1         1 WRH       0.057700
     39 H11          8.3420   -13.1620    -1.2330 hc         1 WRH       0.065200
     40 H12          8.3250   -13.5140     0.5000 hc         1 WRH       0.065200
     41 H13         19.5320   -22.6270     0.1310 hc         1 WRH       0.042200
     42 H14         18.4190   -21.9700     1.3170 hc         1 WRH       0.042200
     43 H15         17.6000   -24.0770     0.2700 h1         1 WRH       0.057700
     44 H16         17.5940   -23.2950    -1.3130 h1         1 WRH       0.057700
     45 H17         10.4720   -19.4100     3.4670 hc         1 WRH       0.038367
     46 H18          9.8690   -19.8150     1.8590 hc         1 WRH       0.038367
     47 H19         11.5930   -19.9630     2.2200 hc         1 WRH       0.038367
     48 H20         12.5600   -16.4810     4.6960 hc         1 WRH       0.032700
     49 H21         10.8270   -16.4790     4.3550 hc         1 WRH       0.032700
     50 H22         11.6550   -17.9920     4.7320 hc         1 WRH       0.032700
     51 H23          6.7960   -15.2080    -0.3510 hc         1 WRH       0.061200
     52 H24          7.8280   -15.5060    -1.7600 hc         1 WRH       0.061200
     53 H25         10.4580   -14.2360    -1.5360 h1         1 WRH       0.092700
     54 H26         15.8100   -22.5460     0.9400 hn         1 WRH       0.333500
     55 H27         19.3170   -20.1390    -0.1130 hc         1 WRH       0.036367
     56 H28         18.7390   -20.9590    -1.5670 hc         1 WRH       0.036367
     57 H29         17.5850   -20.3080    -0.4010 hc         1 WRH       0.036367
     58 H30         12.5610   -10.7720    -0.1310 h1         1 WRH       0.051033
     59 H31         11.5630   -11.0780     1.3210 h1         1 WRH       0.051033
     60 H32         13.0410   -12.0340     1.0410 h1         1 WRH       0.051033
     61 H33         13.0330   -21.9450     1.2360 ho         1 WRH       0.463000
@<TRIPOS>BOND
     1     1     4 1   
     2     1     5 1   
     3     1    29 1   
     4     2     3 1   
     5     2    13 1   
     6     2    28 1   
     7     2    30 1   
     8     3     4 1   
     9     3    31 1   
    10     3    32 1   
    11     4    17 2   
    12     5     6 1   
    13     5    16 1   
    14     5    33 1   
    15     6     7 1   
    16     6    14 1   
    17     6    34 1   
    18     7    15 1   
    19     7    35 1   
    20     7    36 1   
    21     8    12 1   
    22     8    20 1   
    23     8    37 1   
    24     8    38 1   
    25     9    20 1   
    26     9    22 1   
    27     9    39 1   
    28     9    40 1   
    29    10    11 1   
    30    10    24 1   
    31    10    41 1   
    32    10    42 1   
    33    11    23 1   
    34    11    43 1   
    35    11    44 1   
    36    12    16 1   
    37    12    22 1   
    38    13    23 1   
    39    13    25 2   
    40    14    45 1   
    41    14    46 1   
    42    14    47 1   
    43    15    48 1   
    44    15    49 1   
    45    15    50 1   
    46    16    18 2   
    47    19    26 2   
    48    20    51 1   
    49    20    52 1   
    50    21    26 1   
    51    21    27 1   
    52    22    26 1   
    53    22    53 1   
    54    23    54 1   
    55    24    55 1   
    56    24    56 1   
    57    24    57 1   
    58    27    58 1   
    59    27    59 1   
    60    27    60 1   
    61    28    61 1   
@<TRIPOS>SUBSTRUCTURE
     1 WRH         1 TEMP              0 ****  ****    0 ROOT
