@<TRIPOS>MOLECULE
WRH
   61    61     1     0     0
SMALL
No Charge or Current Charge


@<TRIPOS>ATOM
      1 N1          12.3610   -18.6770    -0.0550 ns         1 WRH      -0.482900
      2 C4          14.1430   -21.5840     0.3680 c3         1 WRH       0.095300
      3 C5          13.8380   -20.5190    -0.7090 c3         1 WRH      -0.170400
      4 C6          12.4290   -19.9590    -0.5510 c          1 WRH       0.601100
      5 C7          11.1140   -17.9180     0.2060 c3         1 WRH       0.038700
      6 C8          10.6290   -18.0850     1.6850 c3         1 WRH      -0.064700
      7 C10         11.7100   -17.6510     2.7190 c3         1 WRH      -0.079400
      8 C13          8.7910   -16.0760    -0.4730 c5         1 WRH       0.108000
      9 C15          8.7840   -13.6700    -0.3340 c5         1 WRH      -0.082400
     10 C1          18.7680   -21.6950    -0.5350 c3         1 WRH      -0.097400
     11 C2          17.9230   -22.5200     0.4610 c3         1 WRH       0.100000
     12 N2          10.1680   -15.5780    -0.2460 n          1 WRH      -0.404800
     13 C3          15.4360   -22.3910     0.0160 c          1 WRH       0.592100
     14 C9          10.0950   -19.5140     1.9550 c3         1 WRH      -0.086100
     15 C11         11.2120   -17.5790     4.1780 c3         1 WRH      -0.085100
     16 C12         11.3040   -16.4160    -0.1890 c          1 WRH       0.596100
     17 O1          11.4350   -20.5870    -0.8870 o          1 WRH      -0.629100
     18 O2          12.4190   -15.9470    -0.4000 o          1 WRH      -0.614100
     19 O3          11.4010   -13.8140     1.8050 o          1 WRH      -0.478000
     20 C14          8.0970   -14.8340    -1.0880 c5         1 WRH      -0.095400
     21 O4          11.3550   -12.0750     0.3120 os         1 WRH      -0.442100
     22 C16         10.2780   -14.1000    -0.4000 c5         1 WRH       0.049700
     23 N           16.5810   -21.9620     0.6550 ns         1 WRH      -0.490900
     24 C           18.1920   -21.6380    -1.9670 c3         1 WRH      -0.087100
     25 O           15.4320   -23.3550    -0.7390 o          1 WRH      -0.616100
     26 C17         11.0710   -13.3560     0.7170 c          1 WRH       0.591100
     27 C18         12.0860   -11.2240     1.2150 c3         1 WRH       0.152900
     28 O5          14.2140   -20.9260     1.6600 oh         1 WRH      -0.683000
     29 H1          13.2430   -18.2300     0.1640 hn         1 WRH       0.336500
     30 H2          13.3250   -22.3180     0.3650 h1         1 WRH       0.081700
     31 H3          14.5840   -19.7190    -0.6330 hc         1 WRH       0.084700
     32 H4          13.9040   -20.9960    -1.6940 hc         1 WRH       0.084700
     33 H5          10.3350   -18.3080    -0.4600 h1         1 WRH       0.090700
     34 H6           9.7740   -17.4140     1.8240 hc         1 WRH       0.052700
     35 H7          12.5650   -18.3380     2.6730 hc         1 WRH       0.049700
     36 H8          12.0930   -16.6590     2.4470 hc         1 WRH       0.049700
     37 H9           8.3160   -16.3620     0.4750 h1         1 WRH       0.057700
     38 H10          8.7550   -16.9350    -1.1560 h1         1 WRH       0.057700
     39 H11          8.6060   -12.6940    -0.8010 hc         1 WRH       0.065200
     40 H12          8.4270   -13.6090     0.7020 hc         1 WRH       0.065200
     41 H13         19.7740   -22.1290    -0.5790 hc         1 WRH       0.042200
     42 H14         18.8820   -20.6740    -0.1520 hc         1 WRH       0.042200
     43 H15         18.4320   -22.5380     1.4330 h1         1 WRH       0.057700
     44 H16         17.8460   -23.5570     0.1090 h1         1 WRH       0.057700
     45 H17          9.5740   -19.5660     2.9180 hc         1 WRH       0.038367
     46 H18          9.3800   -19.8140     1.1800 hc         1 WRH       0.038367
     47 H19         10.9130   -20.2450     1.9700 hc         1 WRH       0.038367
     48 H20         11.9980   -17.1750     4.8260 hc         1 WRH       0.032700
     49 H21         10.3350   -16.9250     4.2580 hc         1 WRH       0.032700
     50 H22         10.9430   -18.5720     4.5560 hc         1 WRH       0.032700
     51 H23          7.0100   -14.8500    -0.9490 hc         1 WRH       0.061200
     52 H24          8.2880   -14.7710    -2.1670 hc         1 WRH       0.061200
     53 H25         10.7260   -13.8430    -1.3690 h1         1 WRH       0.092700
     54 H26         16.4650   -21.1670     1.2740 hn         1 WRH       0.333500
     55 H27         18.8760   -21.0950    -2.6300 hc         1 WRH       0.036367
     56 H28         18.0530   -22.6480    -2.3700 hc         1 WRH       0.036367
     57 H29         17.2250   -21.1210    -1.9820 hc         1 WRH       0.036367
     58 H30         12.2430   -10.2360     0.7660 h1         1 WRH       0.051033
     59 H31         11.5350   -11.0870     2.1550 h1         1 WRH       0.051033
     60 H32         13.0700   -11.6520     1.4470 h1         1 WRH       0.051033
     61 H33         14.1500   -21.6210     2.3560 ho         1 WRH       0.463000
@<TRIPOS>BOND
     1     1     4 1   
     2     1     5 1   
     3     1    29 1   
     4     2     3 1   
     5     2    13 1   
     6     2    28 1   
     7     2    30 1   
     8     3     4 1   
     9     3    31 1   
    10     3    32 1   
    11     4    17 2   
    12     5     6 1   
    13     5    16 1   
    14     5    33 1   
    15     6     7 1   
    16     6    14 1   
    17     6    34 1   
    18     7    15 1   
    19     7    35 1   
    20     7    36 1   
    21     8    12 1   
    22     8    20 1   
    23     8    37 1   
    24     8    38 1   
    25     9    20 1   
    26     9    22 1   
    27     9    39 1   
    28     9    40 1   
    29    10    11 1   
    30    10    24 1   
    31    10    41 1   
    32    10    42 1   
    33    11    23 1   
    34    11    43 1   
    35    11    44 1   
    36    12    16 1   
    37    12    22 1   
    38    13    23 1   
    39    13    25 2   
    40    14    45 1   
    41    14    46 1   
    42    14    47 1   
    43    15    48 1   
    44    15    49 1   
    45    15    50 1   
    46    16    18 2   
    47    19    26 2   
    48    20    51 1   
    49    20    52 1   
    50    21    26 1   
    51    21    27 1   
    52    22    26 1   
    53    22    53 1   
    54    23    54 1   
    55    24    55 1   
    56    24    56 1   
    57    24    57 1   
    58    27    58 1   
    59    27    59 1   
    60    27    60 1   
    61    28    61 1   
@<TRIPOS>SUBSTRUCTURE
     1 WRH         1 TEMP              0 ****  ****    0 ROOT
