@<TRIPOS>MOLECULE
WRI
   47    50     1     0     0
SMALL
abcg2


@<TRIPOS>ATOM
      1 C02         67.6350    28.3160  -187.8370 ca         1 WRI       0.615900
      2 C03         67.7440    29.7100  -188.1310 ca         1 WRI      -0.214000
      3 C04         66.8220    30.5850  -187.6460 ca         1 WRI       0.006700
      4 C05         65.7630    30.0640  -186.8400 ca         1 WRI      -0.122000
      5 C06         64.7480    30.8620  -186.2820 ca         1 WRI      -0.079000
      6 C07         63.7550    30.3130  -185.5120 ca         1 WRI      -0.122000
      7 C08         63.7270    28.9240  -185.2530 cp         1 WRI      -0.010000
      8 C09         64.7160    28.1310  -185.7990 ca         1 WRI      -0.094000
      9 C10         65.7430    28.6690  -186.6000 ca         1 WRI       0.324000
     10 C11         66.9120    32.0480  -187.9430 c3         1 WRI      -0.055800
     11 C21         62.6630    28.3420  -184.4100 cp         1 WRI      -0.043000
     12 C22         62.1270    29.0540  -183.3400 ca         1 WRI      -0.097000
     13 C23         61.1370    28.4920  -182.5470 ca         1 WRI      -0.114000
     14 C24         60.6500    27.2150  -182.7940 ca         1 WRI      -0.070300
     15 C25         61.1810    26.4890  -183.8720 ca         1 WRI      -0.077300
     16 C26         62.1730    27.0560  -184.6570 ca         1 WRI      -0.076000
     17 C27         59.5970    26.5990  -181.9190 c3         1 WRI      -0.030100
     18 C28         60.1160    25.4130  -181.0760 c3         1 WRI      -0.067400
     19 C29         61.3310    24.6880  -181.6500 c3         1 WRI      -0.069400
     20 C30         61.1730    24.1130  -183.0540 c3         1 WRI      -0.071400
     21 C31         60.6610    25.0920  -184.1260 c3         1 WRI       0.211800
     22 N01         66.6710    27.8180  -187.1010 nb         1 WRI      -0.757000
     23 N02         68.5880    27.4710  -188.3080 nv         1 WRI      -1.067900
     24 N32         61.0510    24.5990  -185.4380 n8         1 WRI      -1.001200
     25 H1          68.5670    30.0590  -188.7440 ha         1 WRI       0.117000
     26 H2          64.7400    31.9290  -186.4670 ha         1 WRI       0.109000
     27 H3          62.9750    30.9500  -185.1170 ha         1 WRI       0.114000
     28 H4          64.7400    27.0660  -185.6060 ha         1 WRI       0.134000
     29 H5          66.0250    32.3980  -188.4740 hc         1 WRI       0.047700
     30 H6          66.9850    32.6340  -187.0250 hc         1 WRI       0.047700
     31 H7          67.7820    32.2730  -188.5570 hc         1 WRI       0.047700
     32 H8          62.4930    30.0450  -183.1040 ha         1 WRI       0.113000
     33 H9          60.7410    29.0580  -181.7120 ha         1 WRI       0.109000
     34 H10         62.5580    26.4880  -185.4930 ha         1 WRI       0.136000
     35 H11         59.1810    27.3590  -181.2550 hc         1 WRI       0.043700
     36 H12         58.7630    26.2640  -182.5410 hc         1 WRI       0.043700
     37 H13         60.3900    25.7800  -180.0830 hc         1 WRI       0.037200
     38 H14         59.3010    24.7010  -180.9230 hc         1 WRI       0.037200
     39 H15         61.5950    23.8700  -180.9740 hc         1 WRI       0.044200
     40 H16         62.1900    25.3640  -181.6350 hc         1 WRI       0.044200
     41 H17         60.5040    23.2480  -183.0320 hc         1 WRI       0.044200
     42 H18         62.1490    23.7430  -183.3830 hc         1 WRI       0.044200
     43 H19         59.5670    25.1350  -184.0290 h1         1 WRI       0.021700
     44 H20         68.3830    26.4860  -188.2850 hn         1 WRI       0.475500
     45 H21         69.1580    27.7710  -189.0800 hn         1 WRI       0.475500
     46 H22         60.7550    23.6350  -185.5280 hn         1 WRI       0.396500
     47 H23         60.5480    25.1070  -186.1560 hn         1 WRI       0.396500
@<TRIPOS>BOND
     1     1     2 ar  
     2     1    22 ar  
     3     1    23 1   
     4     2     3 ar  
     5     2    25 1   
     6     3     4 ar  
     7     3    10 1   
     8     4     5 ar  
     9     4     9 ar  
    10     5     6 ar  
    11     5    26 1   
    12     6     7 ar  
    13     6    27 1   
    14     7     8 ar  
    15     7    11 1   
    16     8     9 ar  
    17     8    28 1   
    18     9    22 ar  
    19    10    29 1   
    20    10    30 1   
    21    10    31 1   
    22    11    12 ar  
    23    11    16 ar  
    24    12    13 ar  
    25    12    32 1   
    26    13    14 ar  
    27    13    33 1   
    28    14    15 ar  
    29    14    17 1   
    30    15    16 ar  
    31    15    21 1   
    32    16    34 1   
    33    17    18 1   
    34    17    35 1   
    35    17    36 1   
    36    18    19 1   
    37    18    37 1   
    38    18    38 1   
    39    19    20 1   
    40    19    39 1   
    41    19    40 1   
    42    20    21 1   
    43    20    41 1   
    44    20    42 1   
    45    21    24 1   
    46    21    43 1   
    47    23    44 1   
    48    23    45 1   
    49    24    46 1   
    50    24    47 1   
@<TRIPOS>SUBSTRUCTURE
     1 WRI         1 TEMP              0 ****  ****    0 ROOT
