@<TRIPOS>MOLECULE
WRI
   47    50     1     0     0
SMALL
No Charge or Current Charge


@<TRIPOS>ATOM
      1 C02         67.7530    28.4160  -187.8090 ca         1 WRI       0.615900
      2 C03         67.8300    29.7610  -188.1660 ca         1 WRI      -0.214000
      3 C04         66.8390    30.6370  -187.6970 ca         1 WRI       0.006700
      4 C05         65.8140    30.0900  -186.8850 ca         1 WRI      -0.122000
      5 C06         64.7770    30.8950  -186.3660 ca         1 WRI      -0.079000
      6 C07         63.7730    30.3310  -185.5650 ca         1 WRI      -0.122000
      7 C08         63.7700    28.9510  -185.2580 cp         1 WRI      -0.010000
      8 C09         64.8170    28.1570  -185.7860 ca         1 WRI      -0.094000
      9 C10         65.8360    28.6980  -186.5910 ca         1 WRI       0.324000
     10 C11         66.9010    32.1150  -188.0690 c3         1 WRI      -0.055800
     11 C21         62.6970    28.3510  -184.4020 cp         1 WRI      -0.043000
     12 C22         62.1490    29.0680  -183.3120 ca         1 WRI      -0.097000
     13 C23         61.1540    28.5030  -182.5010 ca         1 WRI      -0.114000
     14 C24         60.6710    27.2070  -182.7580 ca         1 WRI      -0.070300
     15 C25         61.1870    26.4710  -183.8540 ca         1 WRI      -0.077300
     16 C26         62.2010    27.0480  -184.6530 ca         1 WRI      -0.076000
     17 C27         59.6000    26.6020  -181.8440 c3         1 WRI      -0.030100
     18 C28         60.0540    25.3390  -181.0580 c3         1 WRI      -0.067400
     19 C29         61.2880    24.5830  -181.6170 c3         1 WRI      -0.069400
     20 C30         61.1550    24.0320  -183.0620 c3         1 WRI      -0.071400
     21 C31         60.6560    25.0510  -184.1160 c3         1 WRI       0.211800
     22 N01         66.8070    27.8790  -187.0580 nb         1 WRI      -0.757000
     23 N02         68.6310    27.4930  -188.2030 nv         1 WRI      -1.067900
     24 N32         60.9120    24.5570  -185.4810 n8         1 WRI      -1.001200
     25 H1          68.6430    30.1150  -188.7910 ha         1 WRI       0.117000
     26 H2          64.7320    31.9610  -186.5760 ha         1 WRI       0.109000
     27 H3          62.9800    30.9720  -185.1890 ha         1 WRI       0.114000
     28 H4          64.8520    27.0970  -185.5570 ha         1 WRI       0.134000
     29 H5          66.0050    32.4200  -188.6230 hc         1 WRI       0.047700
     30 H6          66.9790    32.7440  -187.1740 hc         1 WRI       0.047700
     31 H7          67.7680    32.3390  -188.7020 hc         1 WRI       0.047700
     32 H8          62.5120    30.0660  -183.0800 ha         1 WRI       0.113000
     33 H9          60.7630    29.0750  -181.6620 ha         1 WRI       0.109000
     34 H10         62.6100    26.4850  -185.4870 ha         1 WRI       0.136000
     35 H11         59.2450    27.3480  -181.1220 hc         1 WRI       0.043700
     36 H12         58.7140    26.3500  -182.4390 hc         1 WRI       0.043700
     37 H13         60.2940    25.6460  -180.0320 hc         1 WRI       0.037200
     38 H14         59.2080    24.6460  -180.9760 hc         1 WRI       0.037200
     39 H15         61.5120    23.7420  -180.9480 hc         1 WRI       0.044200
     40 H16         62.1650    25.2410  -181.5630 hc         1 WRI       0.044200
     41 H17         60.4760    23.1700  -183.0550 hc         1 WRI       0.044200
     42 H18         62.1380    23.6510  -183.3650 hc         1 WRI       0.044200
     43 H19         59.5620    25.0910  -184.0310 h1         1 WRI       0.021700
     44 H20         68.3180    26.5390  -188.0710 hn         1 WRI       0.475500
     45 H21         69.1630    27.6810  -189.0450 hn         1 WRI       0.475500
     46 H22         60.4500    23.6480  -185.5940 hn         1 WRI       0.396500
     47 H23         60.4160    25.1630  -186.1440 hn         1 WRI       0.396500
@<TRIPOS>BOND
     1     1     2 ar  
     2     1    22 ar  
     3     1    23 1   
     4     2     3 ar  
     5     2    25 1   
     6     3     4 ar  
     7     3    10 1   
     8     4     5 ar  
     9     4     9 ar  
    10     5     6 ar  
    11     5    26 1   
    12     6     7 ar  
    13     6    27 1   
    14     7     8 ar  
    15     7    11 1   
    16     8     9 ar  
    17     8    28 1   
    18     9    22 ar  
    19    10    29 1   
    20    10    30 1   
    21    10    31 1   
    22    11    12 ar  
    23    11    16 ar  
    24    12    13 ar  
    25    12    32 1   
    26    13    14 ar  
    27    13    33 1   
    28    14    15 ar  
    29    14    17 1   
    30    15    16 ar  
    31    15    21 1   
    32    16    34 1   
    33    17    18 1   
    34    17    35 1   
    35    17    36 1   
    36    18    19 1   
    37    18    37 1   
    38    18    38 1   
    39    19    20 1   
    40    19    39 1   
    41    19    40 1   
    42    20    21 1   
    43    20    41 1   
    44    20    42 1   
    45    21    24 1   
    46    21    43 1   
    47    23    44 1   
    48    23    45 1   
    49    24    46 1   
    50    24    47 1   
@<TRIPOS>SUBSTRUCTURE
     1 WRI         1 TEMP              0 ****  ****    0 ROOT
