@<TRIPOS>MOLECULE
WRJ
   22    23     1     0     0
SMALL
No Charge or Current Charge


@<TRIPOS>ATOM
      1 C4          -3.8200    14.7920     1.1550 ca         1 WRJ      -0.053000
      2 C5          -3.0690    14.7690    -0.0350 ca         1 WRJ      -0.147000
      3 C6          -3.7060    14.9440    -1.2770 ca         1 WRJ      -0.064000
      4 C7          -5.0980    15.1370    -1.3300 ca         1 WRJ      -0.144000
      5 C8          -5.8520    15.1410    -0.1460 ca         1 WRJ       0.158100
      6 O1          -9.5310    15.1390     3.3510 o          1 WRJ      -0.606100
      7 N           -7.7430    15.2640     4.6590 nt         1 WRJ      -0.600000
      8 C1          -7.4000    15.0580     2.2620 ce         1 WRJ      -0.230400
      9 C9          -8.0690    14.9460     0.8850 c6         1 WRJ       0.216800
     10 O           -7.2130    15.3690    -0.2090 os         1 WRJ      -0.343100
     11 C3          -5.2140    14.9760     1.0980 ca         1 WRJ      -0.156800
     12 C2          -6.0380    15.0410     2.3040 cf         1 WRJ      -0.087200
     13 H1          -3.3180    14.6670     2.1120 ha         1 WRJ       0.112000
     14 H2          -1.9920    14.6240     0.0060 ha         1 WRJ       0.118000
     15 H3          -3.1220    14.9340    -2.1950 ha         1 WRJ       0.116000
     16 H4          -5.5930    15.2820    -2.2870 ha         1 WRJ       0.131000
     17 H5          -8.3340    15.3310     5.4740 hn         1 WRJ       0.314500
     18 H6          -6.7410    15.2830     4.7520 hn         1 WRJ       0.314500
     19 H7          -8.9940    15.5390     0.8480 h1         1 WRJ       0.075700
     20 H8          -8.3470    13.8960     0.7160 h1         1 WRJ       0.075700
     21 H9          -5.5010    15.0920     3.2530 ha         1 WRJ       0.181000
     22 C           -8.3160    15.1550     3.4430 c          1 WRJ       0.617300
@<TRIPOS>BOND
     1     1     2 ar  
     2     1    11 ar  
     3     1    13 1   
     4     2     3 ar  
     5     2    14 1   
     6     3     4 ar  
     7     3    15 1   
     8     4     5 ar  
     9     4    16 1   
    10     5    10 1   
    11     5    11 ar  
    12     6    22 2   
    13     7    17 1   
    14     7    18 1   
    15     7    22 1   
    16     8     9 1   
    17     8    12 2   
    18     8    22 1   
    19     9    10 1   
    20     9    19 1   
    21     9    20 1   
    22    11    12 1   
    23    12    21 1   
@<TRIPOS>SUBSTRUCTURE
     1 WRJ         1 TEMP              0 ****  ****    0 ROOT
