@<TRIPOS>MOLECULE
WRJ
   22    23     1     0     0
SMALL
abcg2


@<TRIPOS>ATOM
      1 C4          -3.8470    14.6840     1.1330 ca         1 WRJ      -0.053000
      2 C5          -3.1230    14.6900    -0.0480 ca         1 WRJ      -0.147000
      3 C6          -3.7700    14.9670    -1.2460 ca         1 WRJ      -0.064000
      4 C7          -5.1350    15.2260    -1.2750 ca         1 WRJ      -0.144000
      5 C8          -5.8550    15.2090    -0.0890 ca         1 WRJ       0.158100
      6 O1          -9.4420    14.7170     3.2680 o          1 WRJ      -0.606100
      7 N           -7.7590    15.3980     4.6090 nt         1 WRJ      -0.600000
      8 C1          -7.3500    15.0390     2.2550 ce         1 WRJ      -0.230400
      9 C9          -7.9850    14.9380     0.8960 c6         1 WRJ       0.216800
     10 O           -7.1670    15.5190    -0.1140 os         1 WRJ      -0.343100
     11 C3          -5.2160    14.9410     1.1280 ca         1 WRJ      -0.156800
     12 C2          -6.0150    15.0050     2.3370 cf         1 WRJ      -0.087200
     13 H1          -3.3520    14.4850     2.0760 ha         1 WRJ       0.112000
     14 H2          -2.0600    14.4880    -0.0360 ha         1 WRJ       0.118000
     15 H3          -3.2120    14.9730    -2.1730 ha         1 WRJ       0.116000
     16 H4          -5.6360    15.4470    -2.2080 ha         1 WRJ       0.131000
     17 H5          -8.3570    15.4240     5.4180 hn         1 WRJ       0.314500
     18 H6          -6.8510    15.8180     4.7030 hn         1 WRJ       0.314500
     19 H7          -8.9300    15.4750     0.8560 h1         1 WRJ       0.075700
     20 H8          -8.1880    13.8870     0.6480 h1         1 WRJ       0.075700
     21 H9          -5.4900    15.0030     3.2850 ha         1 WRJ       0.181000
     22 C           -8.2710    15.0470     3.4190 c          1 WRJ       0.617300
@<TRIPOS>BOND
     1     1     2 ar  
     2     1    11 ar  
     3     1    13 1   
     4     2     3 ar  
     5     2    14 1   
     6     3     4 ar  
     7     3    15 1   
     8     4     5 ar  
     9     4    16 1   
    10     5    10 1   
    11     5    11 ar  
    12     6    22 2   
    13     7    17 1   
    14     7    18 1   
    15     7    22 1   
    16     8     9 1   
    17     8    12 2   
    18     8    22 1   
    19     9    10 1   
    20     9    19 1   
    21     9    20 1   
    22    11    12 1   
    23    12    21 1   
@<TRIPOS>SUBSTRUCTURE
     1 WRJ         1 TEMP              0 ****  ****    0 ROOT
