@<TRIPOS>MOLECULE
WRL
   57    60     1     0     0
SMALL
abcg2


@<TRIPOS>ATOM
      1 N1           9.4270     6.6570    20.7440 n3         1 WRL      -0.807500
      2 N3          10.5240    12.2650    21.6690 nb         1 WRL      -0.665000
      3 C4           8.0480     7.1450    20.7410 c6         1 WRL       0.169500
      4 C5           7.1780     6.2230    21.6100 c6         1 WRL      -0.074400
      5 C6           7.7740     6.0200    23.0010 c6         1 WRL      -0.075400
      6 C7           9.2190     5.5290    22.9080 c6         1 WRL      -0.083400
      7 C8          10.0790     6.4620    22.0520 c6         1 WRL       0.247500
      8 C13          8.4810    11.1150    23.2990 c3         1 WRL      -0.093100
      9 C15         11.3830    13.0190    20.9760 ca         1 WRL       0.334900
     10 C17         10.1630    12.7220    18.9500 ca         1 WRL      -0.080000
     11 C20         11.9510     8.1080    18.7870 ca         1 WRL      -0.008000
     12 C21         12.3380     9.3100    18.2130 ca         1 WRL       0.107000
     13 C22         11.4840    10.0410    17.3990 ca         1 WRL      -0.047000
     14 C1          10.2070     9.5450    17.1720 ca         1 WRL       0.107000
     15 C11         10.2180     9.0090    21.8150 c3         1 WRL       0.113000
     16 C12          8.5260    10.8410    21.8010 c3         1 WRL       0.054400
     17 C14          9.4860    11.7260    21.0240 ca         1 WRL       0.326300
     18 C16         11.2480    13.2760    19.6190 ca         1 WRL      -0.160000
     19 C18          9.2730    11.9330    19.6610 ca         1 WRL      -0.145000
     20 C19          7.8330     8.6250    21.1010 c          1 WRL       0.548000
     21 C2           9.7750     8.3530    17.7330 ca         1 WRL      -0.008000
     22 C3          10.6630     7.6490    18.5380 ca         1 WRL      -0.273500
     23 C9          10.3590     7.8150    22.7480 c3         1 WRL      -0.098700
     24 N2           8.8370     9.4180    21.5310 n          1 WRL      -0.395800
     25 O1          11.2700     5.3810    19.6760 o          1 WRL      -0.543500
     26 O3           6.6800     9.0400    20.9470 o          1 WRL      -0.581000
     27 O4           9.0750     5.6020    18.5100 o          1 WRL      -0.543500
     28 S1          10.1050     6.1650    19.3500 sy         1 WRL       1.229600
     29 CL2         13.9330     9.9330    18.5340 cl         1 WRL      -0.188500
     30 H2           7.6780     7.0810    19.7200 h1         1 WRL       0.090700
     31 H3           6.1730     6.6390    21.6660 hc         1 WRL       0.067700
     32 H4           7.1140     5.2630    21.0930 hc         1 WRL       0.067700
     33 H5           7.7300     6.9600    23.5590 hc         1 WRL       0.050200
     34 H6           7.1730     5.2990    23.5570 hc         1 WRL       0.050200
     35 H7           9.2390     4.5320    22.4620 hc         1 WRL       0.054200
     36 H8           9.6680     5.4550    23.9010 hc         1 WRL       0.054200
     37 H9          11.0280     5.9770    21.8420 h1         1 WRL       0.078700
     38 H18          7.7260    10.4760    23.7590 hc         1 WRL       0.050700
     39 H17          9.4400    10.9280    23.7770 hc         1 WRL       0.050700
     40 H19          8.2140    12.1580    23.4780 hc         1 WRL       0.050700
     41 H20         12.2140    13.4360    21.5340 h4         1 WRL       0.021100
     42 H22         10.0160    12.8980    17.8930 ha         1 WRL       0.122000
     43 H24         12.6270     7.5510    19.4170 ha         1 WRL       0.153000
     44 H25         11.8030    10.9740    16.9590 ha         1 WRL       0.146000
     45 H15         10.7620     8.8400    20.8880 h1         1 WRL       0.063700
     46 H14         10.6880     9.8600    22.2960 h1         1 WRL       0.063700
     47 H16          7.5340    10.9980    21.3880 h1         1 WRL       0.093700
     48 H21         11.9720    13.8930    19.1040 ha         1 WRL       0.124000
     49 H23          8.4220    11.4760    19.1720 ha         1 WRL       0.133000
     50 H1           8.7790     7.9820    17.5420 ha         1 WRL       0.153000
     51 H10          9.6580     7.9540    23.5740 hc         1 WRL       0.083700
     52 C10         11.7630     7.7740    23.3380 c3         1 WRL       0.163600
     53 O2          11.9410     8.9020    24.1940 oh         1 WRL      -0.664000
     54 CL1          9.1170    10.4540    16.1620 cl         1 WRL      -0.188500
     55 H12         11.8930     6.8430    23.9000 h1         1 WRL       0.026200
     56 H11         12.5010     7.7850    22.5260 h1         1 WRL       0.026200
     57 H13         12.8610     8.9240    24.4810 ho         1 WRL       0.448000
@<TRIPOS>BOND
     1     1     3 1   
     2     1     7 1   
     3     1    28 1   
     4     2     9 ar  
     5     2    17 ar  
     6     3     4 1   
     7     3    20 1   
     8     3    30 1   
     9     4     5 1   
    10     4    31 1   
    11     4    32 1   
    12     5     6 1   
    13     5    33 1   
    14     5    34 1   
    15     6     7 1   
    16     6    35 1   
    17     6    36 1   
    18     7    23 1   
    19     7    37 1   
    20     8    16 1   
    21     8    38 1   
    22     8    39 1   
    23     8    40 1   
    24     9    18 ar  
    25     9    41 1   
    26    10    18 ar  
    27    10    19 ar  
    28    10    42 1   
    29    11    12 ar  
    30    11    22 ar  
    31    11    43 1   
    32    12    13 ar  
    33    12    29 1   
    34    13    14 ar  
    35    13    44 1   
    36    14    21 ar  
    37    14    54 1   
    38    15    23 1   
    39    15    24 1   
    40    15    45 1   
    41    15    46 1   
    42    16    17 1   
    43    16    24 1   
    44    16    47 1   
    45    17    19 ar  
    46    18    48 1   
    47    19    49 1   
    48    20    24 1   
    49    20    26 2   
    50    21    22 ar  
    51    21    50 1   
    52    22    28 1   
    53    23    51 1   
    54    23    52 1   
    55    25    28 2   
    56    27    28 2   
    57    52    53 1   
    58    52    55 1   
    59    52    56 1   
    60    53    57 1   
@<TRIPOS>SUBSTRUCTURE
     1 WRL         1 TEMP              0 ****  ****    0 ROOT
