@<TRIPOS>MOLECULE
WRL
   57    60     1     0     0
SMALL
No Charge or Current Charge


@<TRIPOS>ATOM
      1 N1           9.7070     6.4720    20.7340 n3         1 WRL      -0.807500
      2 N3          10.9600    12.0090    21.7370 nb         1 WRL      -0.665000
      3 C4           8.5420     7.3500    20.3380 c6         1 WRL       0.169500
      4 C5           7.2530     6.8340    21.0490 c6         1 WRL      -0.074400
      5 C6           7.4070     6.5930    22.5650 c6         1 WRL      -0.075400
      6 C7           8.6230     5.6760    22.8180 c6         1 WRL      -0.083400
      7 C8           9.9150     6.2690    22.2000 c6         1 WRL       0.247500
      8 C13          8.8140    11.0330    23.6770 c3         1 WRL      -0.093100
      9 C15         11.6920    12.9410    21.0860 ca         1 WRL       0.334900
     10 C17          9.8120    13.6170    19.7190 ca         1 WRL      -0.080000
     11 C20         11.3850     8.7390    18.4700 ca         1 WRL      -0.008000
     12 C21         11.1710     9.6900    17.4580 ca         1 WRL       0.107000
     13 C22         10.3690     9.3760    16.3490 ca         1 WRL      -0.047000
     14 C1           9.7850     8.1030    16.2470 ca         1 WRL       0.107000
     15 C11         10.4630     8.8550    22.2430 c3         1 WRL       0.113000
     16 C12          8.8280    10.7900    22.1450 c3         1 WRL       0.054400
     17 C14          9.6540    11.8580    21.3940 ca         1 WRL       0.326300
     18 C16         11.1610    13.7630    20.0780 ca         1 WRL      -0.160000
     19 C18          9.0510    12.6480    20.3920 ca         1 WRL      -0.145000
     20 C19          8.7220     8.8950    20.5260 c          1 WRL       0.548000
     21 C2           9.9930     7.1440    17.2540 ca         1 WRL      -0.008000
     22 C3          10.7830     7.4630    18.3810 ca         1 WRL      -0.273500
     23 C9          10.4110     7.5260    23.0280 c3         1 WRL      -0.098700
     24 N2           9.1490     9.3730    21.7810 n          1 WRL      -0.395800
     25 O1          12.2330     6.6470    20.4250 o          1 WRL      -0.543500
     26 O3           8.5320     9.6630    19.5900 o          1 WRL      -0.581000
     27 O4          10.8830     4.8940    19.1220 o          1 WRL      -0.543500
     28 S1          11.0370     6.2400    19.6820 sy         1 WRL       1.229600
     29 Cl2         11.9120    11.2810    17.5810 cl         1 WRL      -0.188500
     30 H2           8.3390     7.2340    19.2650 h1         1 WRL       0.090700
     31 H3           6.4230     7.5300    20.8640 hc         1 WRL       0.067700
     32 H4           6.9570     5.8880    20.5750 hc         1 WRL       0.067700
     33 H5           7.5150     7.5480    23.0940 hc         1 WRL       0.050200
     34 H6           6.4970     6.1230    22.9610 hc         1 WRL       0.050200
     35 H7           8.4340     4.6890    22.3750 hc         1 WRL       0.054200
     36 H8           8.7560     5.5070    23.8950 hc         1 WRL       0.054200
     37 H9          10.6770     5.4840    22.3300 h1         1 WRL       0.078700
     38 H18          8.1840    10.2870    24.1760 hc         1 WRL       0.050700
     39 H17          9.8170    10.9850    24.1150 hc         1 WRL       0.050700
     40 H19          8.4020    12.0250    23.8980 hc         1 WRL       0.050700
     41 H20         12.7360    13.0320    21.3830 h4         1 WRL       0.021100
     42 H22          9.3700    14.2350    18.9410 ha         1 WRL       0.122000
     43 H24         12.0150     9.0040    19.3150 ha         1 WRL       0.153000
     44 H25         10.2050    10.1140    15.5690 ha         1 WRL       0.146000
     45 H15         11.1260     8.7460    21.3790 h1         1 WRL       0.063700
     46 H14         10.9420     9.6080    22.8770 h1         1 WRL       0.063700
     47 H16          7.7860    10.9430    21.8320 h1         1 WRL       0.093700
     48 H21         11.7920    14.4960    19.5860 ha         1 WRL       0.124000
     49 H23          8.0050    12.5040    20.1360 ha         1 WRL       0.133000
     50 H1           9.5310     6.1630    17.1580 ha         1 WRL       0.153000
     51 H10          9.7040     7.7020    23.8460 hc         1 WRL       0.083700
     52 C10         11.7640     7.2410    23.7370 c3         1 WRL       0.163600
     53 O2          12.0660     8.2520    24.7140 oh         1 WRL      -0.664000
     54 Cl1          8.7860     7.7070    14.8540 cl         1 WRL      -0.188500
     55 H12         11.7060     6.2620    24.2330 h1         1 WRL       0.026200
     56 H11         12.5650     7.1840    22.9890 h1         1 WRL       0.026200
     57 H13         12.9230     8.0060    25.1280 ho         1 WRL       0.448000
@<TRIPOS>BOND
     1     1     3 1   
     2     1     7 1   
     3     1    28 1   
     4     2     9 ar  
     5     2    17 ar  
     6     3     4 1   
     7     3    20 1   
     8     3    30 1   
     9     4     5 1   
    10     4    31 1   
    11     4    32 1   
    12     5     6 1   
    13     5    33 1   
    14     5    34 1   
    15     6     7 1   
    16     6    35 1   
    17     6    36 1   
    18     7    23 1   
    19     7    37 1   
    20     8    16 1   
    21     8    38 1   
    22     8    39 1   
    23     8    40 1   
    24     9    18 ar  
    25     9    41 1   
    26    10    18 ar  
    27    10    19 ar  
    28    10    42 1   
    29    11    12 ar  
    30    11    22 ar  
    31    11    43 1   
    32    12    13 ar  
    33    12    29 1   
    34    13    14 ar  
    35    13    44 1   
    36    14    21 ar  
    37    14    54 1   
    38    15    23 1   
    39    15    24 1   
    40    15    45 1   
    41    15    46 1   
    42    16    17 1   
    43    16    24 1   
    44    16    47 1   
    45    17    19 ar  
    46    18    48 1   
    47    19    49 1   
    48    20    24 1   
    49    20    26 2   
    50    21    22 ar  
    51    21    50 1   
    52    22    28 1   
    53    23    51 1   
    54    23    52 1   
    55    25    28 2   
    56    27    28 2   
    57    52    53 1   
    58    52    55 1   
    59    52    56 1   
    60    53    57 1   
@<TRIPOS>SUBSTRUCTURE
     1 WRL         1 TEMP              0 ****  ****    0 ROOT
