@<TRIPOS>MOLECULE
WRM
   25    26     1     0     0
SMALL
No Charge or Current Charge


@<TRIPOS>ATOM
      1 N1          -7.0270    14.3990     1.3270 na         1 WRM      -0.173600
      2 C4          -4.6160    14.8600     1.8850 ca         1 WRM      -0.114000
      3 C5          -3.4010    15.2610     1.2920 ca         1 WRM      -0.094000
      4 C6          -3.3420    15.5420    -0.0940 ca         1 WRM      -0.135000
      5 C7          -4.4990    15.4270    -0.8970 ca         1 WRM      -0.046000
      6 C8          -5.6970    15.0270    -0.2880 ca         1 WRM       0.073400
      7 O           -8.4960    16.2530     3.0270 o          1 WRM      -0.570100
      8 C1          -7.9440    15.2730     3.5110 c          1 WRM       0.572100
      9 N           -7.6640    15.1890     4.8590 ns         1 WRM      -0.507900
     10 C           -7.9800    16.2380     5.8330 c3         1 WRM       0.094300
     11 C2          -7.5170    14.0530     2.6780 c3         1 WRM      -0.005400
     12 C9          -7.7460    14.4780     0.1310 cc         1 WRM       0.435700
     13 N2          -6.9440    14.8580    -0.8890 nd         1 WRM      -0.569100
     14 C3          -5.7400    14.7540     1.0520 ca         1 WRM      -0.075200
     15 H1          -4.6710    14.6440     2.9490 ha         1 WRM       0.111000
     16 H2          -2.5050    15.3550     1.9030 ha         1 WRM       0.110000
     17 H3          -2.4010    15.8510    -0.5440 ha         1 WRM       0.113000
     18 H4          -4.4640    15.6440    -1.9620 ha         1 WRM       0.128000
     19 H5          -7.2100    14.3440     5.1870 hn         1 WRM       0.314500
     20 H6          -7.6510    15.9230     6.8320 h1         1 WRM       0.043700
     21 H7          -7.4620    17.1660     5.5580 h1         1 WRM       0.043700
     22 H8          -9.0630    16.4140     5.8480 h1         1 WRM       0.043700
     23 H9          -8.3840    13.3870     2.5940 h1         1 WRM       0.072700
     24 H10         -6.7320    13.5110     3.2170 h1         1 WRM       0.072700
     25 H11         -8.8050    14.2550     0.0720 h5         1 WRM       0.060800
@<TRIPOS>BOND
     1     1    11 1   
     2     1    12 1   
     3     1    14 1   
     4     2     3 ar  
     5     2    14 ar  
     6     2    15 1   
     7     3     4 ar  
     8     3    16 1   
     9     4     5 ar  
    10     4    17 1   
    11     5     6 ar  
    12     5    18 1   
    13     6    13 1   
    14     6    14 ar  
    15     7     8 2   
    16     8     9 1   
    17     8    11 1   
    18     9    10 1   
    19     9    19 1   
    20    10    20 1   
    21    10    21 1   
    22    10    22 1   
    23    11    23 1   
    24    11    24 1   
    25    12    13 2   
    26    12    25 1   
@<TRIPOS>SUBSTRUCTURE
     1 WRM         1 TEMP              0 ****  ****    0 ROOT
