@<TRIPOS>MOLECULE
WRM
   25    26     1     0     0
SMALL
abcg2


@<TRIPOS>ATOM
      1 N1          -6.9860    14.3240     1.4050 na         1 WRM      -0.173600
      2 C4          -4.5690    14.8690     1.8950 ca         1 WRM      -0.114000
      3 C5          -3.4250    15.3090     1.2510 ca         1 WRM      -0.094000
      4 C6          -3.4240    15.6040    -0.1210 ca         1 WRM      -0.135000
      5 C7          -4.5660    15.4710    -0.8900 ca         1 WRM      -0.046000
      6 C8          -5.7300    15.0330    -0.2590 ca         1 WRM       0.073400
      7 O           -7.9990    16.3560     2.9460 o          1 WRM      -0.570100
      8 C1          -7.7540    15.2990     3.5040 c          1 WRM       0.572100
      9 N           -7.7190    15.1450     4.8290 ns         1 WRM      -0.507900
     10 C           -8.0090    16.2250     5.7430 c3         1 WRM       0.094300
     11 C2          -7.5020    14.0220     2.7060 c3         1 WRM      -0.005400
     12 C9          -7.6940    14.4180     0.2510 cc         1 WRM       0.435700
     13 N2          -6.9920    14.8210    -0.7670 nd         1 WRM      -0.569100
     14 C3          -5.7110    14.7360     1.1130 ca         1 WRM      -0.075200
     15 H1          -4.5620    14.6470     2.9550 ha         1 WRM       0.111000
     16 H2          -2.5120    15.4300     1.8180 ha         1 WRM       0.110000
     17 H3          -2.5060    15.9450    -0.5840 ha         1 WRM       0.113000
     18 H4          -4.5610    15.7010    -1.9480 ha         1 WRM       0.128000
     19 H5          -7.4610    14.2520     5.2150 hn         1 WRM       0.314500
     20 H6          -8.0160    15.8270     6.7530 h1         1 WRM       0.043700
     21 H7          -7.2570    17.0130     5.6880 h1         1 WRM       0.043700
     22 H8          -8.9850    16.6660     5.5390 h1         1 WRM       0.043700
     23 H9          -8.4510    13.4930     2.5930 h1         1 WRM       0.072700
     24 H10         -6.8250    13.3420     3.2260 h1         1 WRM       0.072700
     25 H11         -8.7430    14.1600     0.2210 h5         1 WRM       0.060800
@<TRIPOS>BOND
     1     1    11 1   
     2     1    12 1   
     3     1    14 1   
     4     2     3 ar  
     5     2    14 ar  
     6     2    15 1   
     7     3     4 ar  
     8     3    16 1   
     9     4     5 ar  
    10     4    17 1   
    11     5     6 ar  
    12     5    18 1   
    13     6    13 1   
    14     6    14 ar  
    15     7     8 2   
    16     8     9 1   
    17     8    11 1   
    18     9    10 1   
    19     9    19 1   
    20    10    20 1   
    21    10    21 1   
    22    10    22 1   
    23    11    23 1   
    24    11    24 1   
    25    12    13 2   
    26    12    25 1   
@<TRIPOS>SUBSTRUCTURE
     1 WRM         1 TEMP              0 ****  ****    0 ROOT
