@<TRIPOS>MOLECULE
WRN
   19    20     1     0     0
SMALL
abcg2


@<TRIPOS>ATOM
      1 C10         -2.4360    -3.2560   -23.3380 ca         1 WRN       0.179100
      2 C02         -2.7260    -3.9910   -28.0070 cg         1 WRN       0.222000
      3 C03         -2.1000    -3.2910   -26.9150 ca         1 WRN       0.428000
      4 C04         -1.0820    -2.3500   -27.1900 ca         1 WRN      -0.119000
      5 C05         -0.5100    -1.7000   -26.1310 ca         1 WRN      -0.074000
      6 C06         -0.9420    -1.9780   -24.8150 ca         1 WRN      -0.037000
      7 C07         -0.3920    -1.3380   -23.6830 ca         1 WRN      -0.138000
      8 C08         -0.8600    -1.6570   -22.4330 ca         1 WRN      -0.049000
      9 C09         -1.8790    -2.6140   -22.2560 ca         1 WRN      -0.220000
     10 C12         -1.9780    -2.9510   -24.6570 ca         1 WRN       0.242000
     11 N01         -3.2190    -4.5420   -28.8900 n1         1 WRN      -0.433000
     12 N13         -2.5380    -3.5880   -25.7070 nb         1 WRN      -0.593000
     13 O11         -3.4160    -4.1840   -23.2270 oh         1 WRN      -0.498100
     14 H1          -0.7780    -2.1630   -28.2100 ha         1 WRN       0.137000
     15 H2           0.2730    -0.9690   -26.2880 ha         1 WRN       0.127000
     16 H3           0.3910    -0.6040   -23.8190 ha         1 WRN       0.123000
     17 H4          -0.4460    -1.1720   -21.5580 ha         1 WRN       0.119000
     18 H5          -2.2330    -2.8500   -21.2590 ha         1 WRN       0.120000
     19 H6          -3.6460    -4.3070   -22.2950 ho         1 WRN       0.464000
@<TRIPOS>BOND
     1     1     9 ar  
     2     1    10 ar  
     3     1    13 1   
     4     2     3 1   
     5     2    11 3   
     6     3     4 ar  
     7     3    12 ar  
     8     4     5 ar  
     9     4    14 1   
    10     5     6 ar  
    11     5    15 1   
    12     6     7 ar  
    13     6    10 ar  
    14     7     8 ar  
    15     7    16 1   
    16     8     9 ar  
    17     8    17 1   
    18     9    18 1   
    19    10    12 ar  
    20    13    19 1   
@<TRIPOS>SUBSTRUCTURE
     1 WRN         1 TEMP              0 ****  ****    0 ROOT
