@<TRIPOS>MOLECULE
WRN
   19    20     1     0     0
SMALL
No Charge or Current Charge


@<TRIPOS>ATOM
      1 C10         -2.4500    -3.2670   -23.3400 ca         1 WRN       0.179100
      2 C02         -2.7080    -3.9880   -28.1020 cg         1 WRN       0.222000
      3 C03         -2.1000    -3.2970   -26.9870 ca         1 WRN       0.428000
      4 C04         -1.0840    -2.3510   -27.2090 ca         1 WRN      -0.119000
      5 C05         -0.5100    -1.6940   -26.1110 ca         1 WRN      -0.074000
      6 C06         -0.9750    -2.0080   -24.8210 ca         1 WRN      -0.037000
      7 C07         -0.4130    -1.3620   -23.7040 ca         1 WRN      -0.138000
      8 C08         -0.8650    -1.6630   -22.4120 ca         1 WRN      -0.049000
      9 C09         -1.8810    -2.6140   -22.2310 ca         1 WRN      -0.220000
     10 C12         -2.0060    -2.9750   -24.6630 ca         1 WRN       0.242000
     11 N01         -3.1930    -4.5410   -29.0120 n1         1 WRN      -0.433000
     12 N13         -2.5500    -3.6020   -25.7430 nb         1 WRN      -0.593000
     13 O11         -3.4410    -4.1890   -23.1100 oh         1 WRN      -0.498100
     14 H1          -0.7490    -2.1320   -28.2200 ha         1 WRN       0.137000
     15 H2           0.2770    -0.9580   -26.2600 ha         1 WRN       0.127000
     16 H3           0.3750    -0.6230   -23.8360 ha         1 WRN       0.123000
     17 H4          -0.4270    -1.1600   -21.5510 ha         1 WRN       0.119000
     18 H5          -2.2220    -2.8390   -21.2230 ha         1 WRN       0.120000
     19 H6          -3.5960    -4.2410   -22.1440 ho         1 WRN       0.464000
@<TRIPOS>BOND
     1     1     9 ar  
     2     1    10 ar  
     3     1    13 1   
     4     2     3 1   
     5     2    11 3   
     6     3     4 ar  
     7     3    12 ar  
     8     4     5 ar  
     9     4    14 1   
    10     5     6 ar  
    11     5    15 1   
    12     6     7 ar  
    13     6    10 ar  
    14     7     8 ar  
    15     7    16 1   
    16     8     9 ar  
    17     8    17 1   
    18     9    18 1   
    19    10    12 ar  
    20    13    19 1   
@<TRIPOS>SUBSTRUCTURE
     1 WRN         1 TEMP              0 ****  ****    0 ROOT
