@<TRIPOS>MOLECULE
WRO
   33    34     1     0     0
SMALL
No Charge or Current Charge


@<TRIPOS>ATOM
      1 OAA          2.2620     2.7290     0.1340 o          1 WRO      -0.689000
      2 CAP          3.3150     2.1200     0.0090 c          1 WRO       0.718200
      3 OAD          4.3740     2.7040    -0.1960 o          1 WRO      -0.689000
      4 CAS          3.3580     0.5990     0.0850 cc         1 WRO       0.028400
      5 NAN          4.6160     0.0320    -0.1130 ns         1 WRO      -0.494600
      6 CAU          4.9130    -1.2900    -0.1170 c          1 WRO       0.606000
      7 OAB          6.0390    -1.7100    -0.2990 o          1 WRO      -0.607000
      8 NAO          3.8490    -2.0960     0.0950 ns         1 WRO      -0.471500
      9 CAV          2.5520    -1.7450     0.3110 c          1 WRO       0.578200
     10 OAC          1.7030    -2.6050     0.4810 o          1 WRO      -0.587000
     11 CAT          2.2910    -0.2720     0.3150 cd         1 WRO      -0.297400
     12 CAM          0.8430     0.1230     0.5730 c3         1 WRO       0.020800
     13 CAL          0.0400     0.3010    -0.7330 c3         1 WRO      -0.035100
     14 CAQ         -1.3960     0.7330    -0.4700 ca         1 WRO      -0.059300
     15 CAK         -2.4270    -0.2250    -0.4020 ca         1 WRO      -0.068000
     16 CAR         -3.7620     0.1650    -0.1570 ca         1 WRO      -0.208300
     17 CAW         -4.8730    -0.8890    -0.0740 c3         1 WRO       0.354300
     18 FAF         -6.0880    -0.3870    -0.3950 f          1 WRO      -0.122000
     19 FAG         -4.6550    -1.9300    -0.9100 f          1 WRO      -0.122000
     20 FAE         -4.9740    -1.3990     1.1740 f          1 WRO      -0.122000
     21 CAJ         -4.0490     1.5340     0.0370 ca         1 WRO      -0.082000
     22 CAH         -3.0230     2.4910    -0.0280 ca         1 WRO      -0.127000
     23 CAI         -1.7000     2.0930    -0.2820 ca         1 WRO      -0.068000
     24 H2           4.0410    -3.0850     0.0920 hn         1 WRO       0.320500
     25 H4           0.3340    -0.6250     1.1920 hc         1 WRO       0.056700
     26 H5           0.7860     1.0400     1.1690 hc         1 WRO       0.056700
     27 H6           0.5430     1.0400    -1.3680 hc         1 WRO       0.057200
     28 H7           0.0580    -0.6420    -1.2940 hc         1 WRO       0.057200
     29 H8          -2.1840    -1.2780    -0.5360 ha         1 WRO       0.128000
     30 H9          -5.0660     1.8620     0.2420 ha         1 WRO       0.113000
     31 H10         -3.2530     3.5430     0.1220 ha         1 WRO       0.111000
     32 H11         -0.9100     2.8400    -0.3260 ha         1 WRO       0.151000
     33 H12          5.4080     0.6480    -0.2780 hn         1 WRO       0.490000
@<TRIPOS>BOND
     1     1     2 1   
     2     2     3 1   
     3     2     4 1   
     4     4     5 1   
     5     4    11 2   
     6     5     6 1   
     7     5    33 1   
     8     6     7 2   
     9     6     8 1   
    10     8     9 1   
    11     8    24 1   
    12     9    10 2   
    13     9    11 1   
    14    11    12 1   
    15    12    13 1   
    16    12    25 1   
    17    12    26 1   
    18    13    14 1   
    19    13    27 1   
    20    13    28 1   
    21    14    15 ar  
    22    14    23 ar  
    23    15    16 ar  
    24    15    29 1   
    25    16    17 1   
    26    16    21 ar  
    27    17    18 1   
    28    17    19 1   
    29    17    20 1   
    30    21    22 ar  
    31    21    30 1   
    32    22    23 ar  
    33    22    31 1   
    34    23    32 1   
@<TRIPOS>SUBSTRUCTURE
     1 WRO         1 TEMP              0 ****  ****    0 ROOT
