@<TRIPOS>MOLECULE
WRO
   33    34     1     0     0
SMALL
bcc


@<TRIPOS>ATOM
      1 OAA          2.1010     2.6340     0.0420 o          1 WRO      -0.794300
      2 CAP          3.2160     2.1010     0.0340 c          1 WRO       0.928800
      3 OAD          4.3320     2.6480    -0.0390 o          1 WRO      -0.794300
      4 CAS          3.2760     0.5610     0.1020 cc         1 WRO       0.028400
      5 NAN          4.5450     0.0950    -0.1020 ns         1 WRO      -0.448100
      6 CAU          4.9120    -1.2120    -0.1200 c          1 WRO       0.815500
      7 OAB          6.0540    -1.5940    -0.2990 o          1 WRO      -0.682500
      8 NAO          3.8610    -2.0680     0.0790 ns         1 WRO      -0.605500
      9 CAV          2.5390    -1.7260     0.2940 c          1 WRO       0.720700
     10 OAC          1.7060    -2.6060     0.4380 o          1 WRO      -0.662500
     11 CAT          2.2500    -0.2970     0.3260 cd         1 WRO      -0.297400
     12 CAM          0.8210     0.0890     0.5630 c3         1 WRO       0.020800
     13 CAL          0.0300     0.2150    -0.7460 c3         1 WRO      -0.035100
     14 CAQ         -1.3770     0.6740    -0.4970 ca         1 WRO      -0.059300
     15 CAK         -2.4270    -0.2340    -0.4300 ca         1 WRO      -0.086000
     16 CAR         -3.7230     0.1980    -0.1680 ca         1 WRO      -0.208300
     17 CAW         -4.8250    -0.8060    -0.0500 c3         1 WRO       0.718200
     18 FAF         -6.0230    -0.2910    -0.3490 f          1 WRO      -0.243300
     19 FAG         -4.6420    -1.8620    -0.8530 f          1 WRO      -0.243300
     20 FAE         -4.9180    -1.2910     1.2000 f          1 WRO      -0.243300
     21 CAJ         -3.9850     1.5470     0.0370 ca         1 WRO      -0.100000
     22 CAH         -2.9400     2.4570    -0.0280 ca         1 WRO      -0.145000
     23 CAI         -1.6500     2.0250    -0.2900 ca         1 WRO      -0.086000
     24 H2           4.0790    -3.0570     0.0600 hn         1 WRO       0.320500
     25 H4           0.3480    -0.6680     1.1900 hc         1 WRO       0.056700
     26 H5           0.7700     1.0300     1.1030 hc         1 WRO       0.056700
     27 H6           0.5400     0.9290    -1.3940 hc         1 WRO       0.057200
     28 H7           0.0250    -0.7460    -1.2650 hc         1 WRO       0.057200
     29 H8          -2.2200    -1.2850    -0.5910 ha         1 WRO       0.146000
     30 H9          -4.9870     1.8990     0.2420 ha         1 WRO       0.131000
     31 H10         -3.1380     3.5100     0.1250 ha         1 WRO       0.129000
     32 H11         -0.8380     2.7410    -0.3360 ha         1 WRO       0.169000
     33 H12          5.2540     0.8100    -0.2260 hn         1 WRO       0.376500
@<TRIPOS>BOND
     1     1     2 1   
     2     2     3 1   
     3     2     4 1   
     4     4     5 1   
     5     4    11 2   
     6     5     6 1   
     7     5    33 1   
     8     6     7 2   
     9     6     8 1   
    10     8     9 1   
    11     8    24 1   
    12     9    10 2   
    13     9    11 1   
    14    11    12 1   
    15    12    13 1   
    16    12    25 1   
    17    12    26 1   
    18    13    14 1   
    19    13    27 1   
    20    13    28 1   
    21    14    15 ar  
    22    14    23 ar  
    23    15    16 ar  
    24    15    29 1   
    25    16    17 1   
    26    16    21 ar  
    27    17    18 1   
    28    17    19 1   
    29    17    20 1   
    30    21    22 ar  
    31    21    30 1   
    32    22    23 ar  
    33    22    31 1   
    34    23    32 1   
@<TRIPOS>SUBSTRUCTURE
     1 WRO         1 TEMP              0 ****  ****    0 ROOT
