@<TRIPOS>MOLECULE
WRP
   43    44     1     0     0
SMALL
bcc


@<TRIPOS>ATOM
      1 O          -26.5610    12.9350    -5.6140 o          1 WRP      -0.831800
      2 C          -25.6220    12.3020    -6.1440 c          1 WRP       0.907600
      3 CA         -24.9310    11.2590    -5.2390 c3         1 WRP      -0.019500
      4 CB         -25.8080     9.9900    -5.1230 c3         1 WRP       0.226300
      5 CG         -25.9060     9.2370    -6.4040 cc         1 WRP      -0.096400
      6 CD1        -27.0090     9.1430    -7.1950 cd         1 WRP      -0.092100
      7 NE1        -26.7480     8.4250    -8.3370 na         1 WRP      -0.074400
      8 C1         -27.7320     8.1160    -9.3890 c3         1 WRP       0.101700
      9 C3         -29.0390     8.8610    -9.1150 c3         1 WRP      -0.098100
     10 C4         -27.9620     6.5840    -9.3960 c3         1 WRP       0.134100
     11 C5         -28.4150     6.0240    -8.0540 c3         1 WRP      -0.125100
     12 O6         -28.9040     6.3200   -10.4130 oh         1 WRP      -0.604800
     13 C2         -27.2020     8.6060   -10.7420 c3         1 WRP      -0.098100
     14 CE2        -25.4320     8.0190    -8.2820 ca         1 WRP      -0.045200
     15 CZ2        -24.6540     7.2540    -9.1590 ca         1 WRP      -0.159000
     16 CH2        -23.3350     7.0120    -8.8290 ca         1 WRP      -0.131000
     17 CZ3        -22.7740     7.5060    -7.6430 ca         1 WRP      -0.183000
     18 CE3        -23.5350     8.2510    -6.7670 ca         1 WRP      -0.054000
     19 CD2        -24.8730     8.5180    -7.0800 ca         1 WRP      -0.060800
     20 OB         -25.2760     9.1590    -4.1160 oh         1 WRP      -0.637800
     21 N          -24.6860    11.7150    -3.8720 n8         1 WRP      -0.922800
     22 OXT        -25.2070    12.4100    -7.3120 o          1 WRP      -0.831800
     23 H2         -23.9710    10.9710    -5.6750 h1         1 WRP       0.050700
     24 H3         -26.8210    10.3260    -4.8450 h1         1 WRP       0.041700
     25 H4         -27.9820     9.5680    -7.0110 h4         1 WRP       0.165000
     26 H5         -29.5110     8.5800    -8.1750 hc         1 WRP       0.048367
     27 H6         -28.8750     9.9400    -9.1040 hc         1 WRP       0.048367
     28 H7         -29.7470     8.6500    -9.9130 hc         1 WRP       0.048367
     29 H8         -27.0070     6.1050    -9.6470 h1         1 WRP       0.036700
     30 H9         -27.6780     6.2070    -7.2720 hc         1 WRP       0.044033
     31 H10        -29.3670     6.4460    -7.7330 hc         1 WRP       0.044033
     32 H11        -28.5390     4.9420    -8.1290 hc         1 WRP       0.044033
     33 H12        -29.0090     5.3670   -10.4850 ho         1 WRP       0.396000
     34 H13        -26.9320     9.6600   -10.6730 hc         1 WRP       0.048367
     35 H14        -26.3280     8.0570   -11.0860 hc         1 WRP       0.048367
     36 H15        -27.9700     8.5070   -11.5070 hc         1 WRP       0.048367
     37 H16        -25.0470     6.8450   -10.0780 ha         1 WRP       0.113000
     38 H17        -22.7270     6.4230    -9.5030 ha         1 WRP       0.106000
     39 H18        -21.7370     7.2950    -7.4150 ha         1 WRP       0.112000
     40 H19        -23.1070     8.6180    -5.8430 ha         1 WRP       0.140000
     41 H20        -24.8900     9.8010    -3.4910 ho         1 WRP       0.429000
     42 H21        -23.8530    12.2880    -3.8380 hn         1 WRP       0.342300
     43 H22        -25.4570    12.3140    -3.5970 hn         1 WRP       0.342300
@<TRIPOS>BOND
     1     1     2 1   
     2     2     3 1   
     3     2    22 1   
     4     3     4 1   
     5     3    21 1   
     6     3    23 1   
     7     4     5 1   
     8     4    20 1   
     9     4    24 1   
    10     5     6 2   
    11     5    19 1   
    12     6     7 1   
    13     6    25 1   
    14     7     8 1   
    15     7    14 1   
    16     8     9 1   
    17     8    10 1   
    18     8    13 1   
    19     9    26 1   
    20     9    27 1   
    21     9    28 1   
    22    10    11 1   
    23    10    12 1   
    24    10    29 1   
    25    11    30 1   
    26    11    31 1   
    27    11    32 1   
    28    12    33 1   
    29    13    34 1   
    30    13    35 1   
    31    13    36 1   
    32    14    15 ar  
    33    14    19 ar  
    34    15    16 ar  
    35    15    37 1   
    36    16    17 ar  
    37    16    38 1   
    38    17    18 ar  
    39    17    39 1   
    40    18    19 ar  
    41    18    40 1   
    42    20    41 1   
    43    21    42 1   
    44    21    43 1   
@<TRIPOS>SUBSTRUCTURE
     1 WRP         1 TEMP              0 ****  ****    0 ROOT
