@<TRIPOS>MOLECULE
WRP
   43    44     1     0     0
SMALL
No Charge or Current Charge


@<TRIPOS>ATOM
      1 O          -26.4030    13.1460    -5.3610 o          1 WRP      -0.726500
      2 C          -25.5220    12.5250    -5.9390 c          1 WRP       0.697000
      3 CA         -24.8510    11.3150    -5.1860 c3         1 WRP      -0.019500
      4 CB         -25.8460    10.1260    -5.1240 c3         1 WRP       0.249500
      5 CG         -25.9700     9.3430    -6.4120 cc         1 WRP      -0.096400
      6 CD1        -27.0990     9.2540    -7.2150 cd         1 WRP      -0.142100
      7 NE1        -26.8320     8.4480    -8.3540 na         1 WRP      -0.103700
      8 C1         -27.7840     8.0620    -9.4550 c3         1 WRP       0.131000
      9 C3         -29.1710     8.7450    -9.2210 c3         1 WRP      -0.098100
     10 C4         -27.9670     6.4900    -9.5160 c3         1 WRP       0.157300
     11 C5         -28.4520     5.8390    -8.1990 c3         1 WRP      -0.125100
     12 O6         -28.8790     6.1050   -10.5590 oh         1 WRP      -0.667000
     13 C2         -27.2580     8.6160   -10.8130 c3         1 WRP      -0.098100
     14 CE2        -25.4940     8.0450    -8.2270 ca         1 WRP      -0.045200
     15 CZ2        -24.6970     7.2400    -9.0710 ca         1 WRP      -0.141000
     16 CH2        -23.3620     6.9790    -8.7040 ca         1 WRP      -0.113000
     17 CZ3        -22.8300     7.5130    -7.5130 ca         1 WRP      -0.165000
     18 CE3        -23.6320     8.3160    -6.6810 ca         1 WRP      -0.036000
     19 CD2        -24.9580     8.5640    -7.0720 ca         1 WRP      -0.060800
     20 OB         -25.3710     9.3240    -4.0530 oh         1 WRP      -0.700000
     21 N          -24.2530    11.6010    -3.8040 n8         1 WRP      -1.033200
     22 OXT        -25.0410    12.8830    -7.0050 o          1 WRP      -0.726500
     23 H2         -24.0110    10.9950    -5.8180 h1         1 WRP       0.050700
     24 H3         -26.8380    10.5180    -4.8610 h1         1 WRP       0.041700
     25 H4         -28.0660     9.7150    -7.0430 h4         1 WRP       0.215000
     26 H5         -29.6180     8.4430    -8.2670 hc         1 WRP       0.048367
     27 H6         -29.0730     9.8370    -9.2160 hc         1 WRP       0.048367
     28 H7         -29.8820     8.4890   -10.0150 hc         1 WRP       0.048367
     29 H8         -26.9940     6.0420    -9.7360 h1         1 WRP       0.036700
     30 H9         -27.7840     6.0900    -7.3670 hc         1 WRP       0.044033
     31 H10        -29.4660     6.1620    -7.9370 hc         1 WRP       0.044033
     32 H11        -28.4620     4.7460    -8.2940 hc         1 WRP       0.044033
     33 H12        -28.9050     5.1230   -10.5700 ho         1 WRP       0.435000
     34 H13        -27.0540     9.6910   -10.7380 hc         1 WRP       0.048367
     35 H14        -26.3380     8.1250   -11.1380 hc         1 WRP       0.048367
     36 H15        -27.9980     8.4740   -11.6100 hc         1 WRP       0.048367
     37 H16        -25.0730     6.8140    -9.9930 ha         1 WRP       0.095000
     38 H17        -22.7370     6.3600    -9.3450 ha         1 WRP       0.088000
     39 H18        -21.7990     7.3060    -7.2360 ha         1 WRP       0.094000
     40 H19        -23.2310     8.7310    -5.7600 ha         1 WRP       0.122000
     41 H20        -24.7560     9.9970    -3.6420 ho         1 WRP       0.468000
     42 H21        -23.4710    12.2630    -3.9090 hn         1 WRP       0.397500
     43 H22        -24.9360    12.1560    -3.2660 hn         1 WRP       0.397500
@<TRIPOS>BOND
     1     1     2 1   
     2     2     3 1   
     3     2    22 1   
     4     3     4 1   
     5     3    21 1   
     6     3    23 1   
     7     4     5 1   
     8     4    20 1   
     9     4    24 1   
    10     5     6 2   
    11     5    19 1   
    12     6     7 1   
    13     6    25 1   
    14     7     8 1   
    15     7    14 1   
    16     8     9 1   
    17     8    10 1   
    18     8    13 1   
    19     9    26 1   
    20     9    27 1   
    21     9    28 1   
    22    10    11 1   
    23    10    12 1   
    24    10    29 1   
    25    11    30 1   
    26    11    31 1   
    27    11    32 1   
    28    12    33 1   
    29    13    34 1   
    30    13    35 1   
    31    13    36 1   
    32    14    15 ar  
    33    14    19 ar  
    34    15    16 ar  
    35    15    37 1   
    36    16    17 ar  
    37    16    38 1   
    38    17    18 ar  
    39    17    39 1   
    40    18    19 ar  
    41    18    40 1   
    42    20    41 1   
    43    21    42 1   
    44    21    43 1   
@<TRIPOS>SUBSTRUCTURE
     1 WRP         1 TEMP              0 ****  ****    0 ROOT
