@<TRIPOS>MOLECULE
WRQ
   38    38     1     0     0
SMALL
No Charge or Current Charge


@<TRIPOS>ATOM
      1 C15         66.2320   -80.7570   -15.3050 c3         1 WRQ       0.230100
      2 C16         65.5520   -83.1760   -18.4320 c3         1 WRQ      -0.357100
      3 C17         69.6070   -80.8150   -15.0010 c          1 WRQ       0.695100
      4 C18         71.4060   -79.0630   -14.9090 ca         1 WRQ       0.331900
      5 C19         71.5410   -77.2550   -13.5220 ca         1 WRQ       0.407300
      6 C20         73.4340   -78.0320   -14.7880 ca         1 WRQ       0.407300
      7 C21         72.8970   -77.1220   -13.8720 ca         1 WRQ      -0.366000
      8 C22         71.6420   -75.3110   -12.0040 c3         1 WRQ       0.154900
      9 C23         75.3900   -78.7830   -16.0660 c3         1 WRQ       0.154900
     10 N10         66.5140   -81.9270   -16.1590 n3         1 WRQ      -0.722400
     11 N11         69.1050   -81.6740   -15.9150 ns         1 WRQ      -0.615300
     12 N12         70.6350   -80.0660   -15.5170 ns         1 WRQ      -0.314900
     13 N13         70.7880   -78.2320   -14.0520 nb         1 WRQ      -0.289500
     14 N14         72.6800   -79.0120   -15.3210 nb         1 WRQ      -0.289500
     15 O03         65.2730   -80.6330   -17.9440 o          1 WRQ      -0.525000
     16 O04         67.6080   -81.4540   -18.4340 o          1 WRQ      -0.525000
     17 O05         67.7430   -83.1680   -14.3270 o          1 WRQ      -0.530000
     18 O06         68.0970   -83.8440   -16.7330 o          1 WRQ      -0.530000
     19 O07         69.1940   -80.7140   -13.8600 o          1 WRQ      -0.536100
     20 O08         70.9320   -76.3950   -12.6330 os         1 WRQ      -0.438300
     21 O09         74.7590   -77.8870   -15.1290 os         1 WRQ      -0.438300
     22 S01         66.2970   -81.6740   -17.8190 s6         1 WRQ       1.216100
     23 S02         67.8970   -82.7960   -15.7340 s6         1 WRQ       1.345900
     24 H1          66.3210   -81.0070   -14.2390 h1         1 WRQ       0.066033
     25 H2          66.9200   -79.9280   -15.5190 h1         1 WRQ       0.066033
     26 H3          65.2070   -80.3940   -15.4550 h1         1 WRQ       0.066033
     27 H4          66.2830   -83.9850   -18.3690 h1         1 WRQ       0.112367
     28 H5          64.6750   -83.3790   -17.8100 h1         1 WRQ       0.112367
     29 H6          65.2650   -82.9910   -19.4710 h1         1 WRQ       0.112367
     30 H7          73.5320   -76.3450   -13.4630 ha         1 WRQ       0.152000
     31 H8          70.9730   -74.7540   -11.3360 h1         1 WRQ       0.050700
     32 H9          72.4810   -75.6860   -11.4040 h1         1 WRQ       0.050700
     33 H10         72.0310   -74.6090   -12.7540 h1         1 WRQ       0.050700
     34 H11         76.4430   -78.5080   -16.2080 h1         1 WRQ       0.050700
     35 H12         75.3550   -79.8180   -15.7020 h1         1 WRQ       0.050700
     36 H13         74.8930   -78.7400   -17.0440 h1         1 WRQ       0.050700
     37 H14         69.4790   -81.6980   -16.8470 hn         1 WRQ       0.360500
     38 H15         70.9160   -80.2920   -16.4590 hn         1 WRQ       0.179000
@<TRIPOS>BOND
     1     1    10 1   
     2     1    24 1   
     3     1    25 1   
     4     1    26 1   
     5     2    22 1   
     6     2    27 1   
     7     2    28 1   
     8     2    29 1   
     9     3    11 1   
    10     3    12 1   
    11     3    19 2   
    12     4    12 1   
    13     4    13 ar  
    14     4    14 ar  
    15     5     7 ar  
    16     5    13 ar  
    17     5    20 1   
    18     6     7 ar  
    19     6    14 ar  
    20     6    21 1   
    21     7    30 1   
    22     8    20 1   
    23     8    31 1   
    24     8    32 1   
    25     8    33 1   
    26     9    21 1   
    27     9    34 1   
    28     9    35 1   
    29     9    36 1   
    30    10    22 1   
    31    10    23 1   
    32    11    23 1   
    33    11    37 1   
    34    12    38 1   
    35    15    22 2   
    36    16    22 2   
    37    17    23 2   
    38    18    23 2   
@<TRIPOS>SUBSTRUCTURE
     1 WRQ         1 TEMP              0 ****  ****    0 ROOT
