@<TRIPOS>MOLECULE
WRQ
   38    38     1     0     0
SMALL
abcg2


@<TRIPOS>ATOM
      1 C15         65.9400   -81.1980   -15.0720 c3         1 WRQ       0.230100
      2 C16         65.3490   -82.5190   -18.2800 c3         1 WRQ      -0.357100
      3 C17         69.7380   -80.8100   -15.2010 c          1 WRQ       0.695100
      4 C18         71.5870   -79.1890   -14.9250 ca         1 WRQ       0.331900
      5 C19         71.5470   -77.3020   -13.7120 ca         1 WRQ       0.407300
      6 C20         73.5000   -78.0200   -14.7970 ca         1 WRQ       0.407300
      7 C21         72.8830   -77.0650   -13.9860 ca         1 WRQ      -0.366000
      8 C22         71.3530   -75.3450   -12.4000 c3         1 WRQ       0.154900
      9 C23         75.4370   -78.7920   -15.9090 c3         1 WRQ       0.154900
     10 N10         66.8090   -81.7670   -16.1100 n3         1 WRQ      -0.722400
     11 N11         69.4590   -81.9390   -15.9620 ns         1 WRQ      -0.615300
     12 N12         70.9870   -80.3170   -15.4600 ns         1 WRQ      -0.314900
     13 N13         70.8920   -78.3650   -14.1800 nb         1 WRQ      -0.289500
     14 N14         72.8680   -79.0770   -15.2690 nb         1 WRQ      -0.289500
     15 O03         65.8820   -80.0160   -17.6550 o          1 WRQ      -0.525000
     16 O04         67.7600   -81.4700   -18.4510 o          1 WRQ      -0.525000
     17 O05         67.9220   -83.1480   -14.3580 o          1 WRQ      -0.530000
     18 O06         68.1150   -83.8290   -16.7630 o          1 WRQ      -0.530000
     19 O07         68.9390   -80.3710   -14.4140 o          1 WRQ      -0.536100
     20 O08         70.7830   -76.5130   -12.9700 os         1 WRQ      -0.438300
     21 O09         74.7750   -77.8360   -15.0860 os         1 WRQ      -0.438300
     22 S01         66.5200   -81.3140   -17.7200 s6         1 WRQ       1.216100
     23 S02         68.0610   -82.8050   -15.7490 s6         1 WRQ       1.345900
     24 H1          66.1220   -81.7130   -14.1360 h1         1 WRQ       0.066033
     25 H2          66.1340   -80.1390   -14.9370 h1         1 WRQ       0.066033
     26 H3          64.8970   -81.3580   -15.3380 h1         1 WRQ       0.066033
     27 H4          65.8110   -83.5020   -18.2530 h1         1 WRQ       0.112367
     28 H5          64.4680   -82.4910   -17.6420 h1         1 WRQ       0.112367
     29 H6          65.0770   -82.2570   -19.3010 h1         1 WRQ       0.112367
     30 H7          73.4340   -76.2120   -13.6180 ha         1 WRQ       0.152000
     31 H8          70.5550   -74.8550   -11.8510 h1         1 WRQ       0.050700
     32 H9          72.1620   -75.5880   -11.7090 h1         1 WRQ       0.050700
     33 H10         71.7270   -74.6640   -13.1670 h1         1 WRQ       0.050700
     34 H11         76.4550   -78.4290   -16.0200 h1         1 WRQ       0.050700
     35 H12         75.4530   -79.7780   -15.4450 h1         1 WRQ       0.050700
     36 H13         74.9710   -78.8690   -16.8910 h1         1 WRQ       0.050700
     37 H14         70.0200   -82.2090   -16.7630 hn         1 WRQ       0.360500
     38 H15         71.6040   -80.8510   -16.0560 hn         1 WRQ       0.179000
@<TRIPOS>BOND
     1     1    10 1   
     2     1    24 1   
     3     1    25 1   
     4     1    26 1   
     5     2    22 1   
     6     2    27 1   
     7     2    28 1   
     8     2    29 1   
     9     3    11 1   
    10     3    12 1   
    11     3    19 2   
    12     4    12 1   
    13     4    13 ar  
    14     4    14 ar  
    15     5     7 ar  
    16     5    13 ar  
    17     5    20 1   
    18     6     7 ar  
    19     6    14 ar  
    20     6    21 1   
    21     7    30 1   
    22     8    20 1   
    23     8    31 1   
    24     8    32 1   
    25     8    33 1   
    26     9    21 1   
    27     9    34 1   
    28     9    35 1   
    29     9    36 1   
    30    10    22 1   
    31    10    23 1   
    32    11    23 1   
    33    11    37 1   
    34    12    38 1   
    35    15    22 2   
    36    16    22 2   
    37    17    23 2   
    38    18    23 2   
@<TRIPOS>SUBSTRUCTURE
     1 WRQ         1 TEMP              0 ****  ****    0 ROOT
