@<TRIPOS>MOLECULE
WRU
   40    43     1     0     0
SMALL
abcg2


@<TRIPOS>ATOM
      1 C8         135.7560   135.7470   107.4880 ca         1 WRU      -0.079300
      2 C5         134.1730   135.3270   105.2170 ca         1 WRU      -0.105000
      3 C6         134.4170   134.2790   106.0920 ca         1 WRU      -0.113000
      4 N1         138.9330   135.1340   109.4070 n3         1 WRU      -0.720600
      5 C2         135.9580   138.2030   106.9250 c3         1 WRU       0.020200
      6 C4         134.7060   136.5780   105.4890 ca         1 WRU      -0.111000
      7 C11        139.1210   136.4310   110.0170 c6         1 WRU       0.160800
      8 C12        137.7870   137.0140   110.4360 c6         1 WRU       0.191800
      9 C13        135.8330   138.0180   109.4040 ca         1 WRU       0.277000
     10 C14        135.2790   138.3820   110.6310 ca         1 WRU      -0.153000
     11 C15        134.2660   139.3320   110.6940 ca         1 WRU      -0.094000
     12 C16        133.7860   139.9200   109.5350 ca         1 WRU      -0.127000
     13 C1         138.0370   135.2300   108.2770 c6         1 WRU       0.162800
     14 N2         136.9120   137.1270   109.2840 nh         1 WRU      -0.794400
     15 C3         135.4970   136.8050   106.6130 ca         1 WRU      -0.053300
     16 C7         135.1980   134.4980   107.2160 ca         1 WRU      -0.109000
     17 C9         136.6810   135.8130   108.6860 c6         1 WRU       0.261800
     18 C10        140.1880   134.5190   109.0430 c3         1 WRU       0.155100
     19 C17        134.3340   139.5580   108.3090 ca         1 WRU      -0.090000
     20 C18        135.3560   138.6240   108.2330 ca         1 WRU      -0.085300
     21 H1         133.5620   135.1770   104.3360 ha         1 WRU       0.113000
     22 H2         133.9980   133.2980   105.9070 ha         1 WRU       0.113000
     23 H4         137.0490   138.2490   106.9890 hc         1 WRU       0.060700
     24 H5         135.6480   138.8800   106.1280 hc         1 WRU       0.060700
     25 H6         134.4970   137.4050   104.8200 ha         1 WRU       0.110000
     26 H7         139.7540   136.3260   110.9020 h1         1 WRU       0.039200
     27 H8         139.6260   137.1390   109.3360 h1         1 WRU       0.039200
     28 H9         137.9490   138.0070   110.8570 h1         1 WRU       0.043200
     29 H10        137.3530   136.3830   111.2270 h1         1 WRU       0.043200
     30 H11        135.6340   137.9290   111.5470 ha         1 WRU       0.112000
     31 H12        133.8500   139.6030   111.6560 ha         1 WRU       0.110000
     32 H13        132.9970   140.6590   109.5810 ha         1 WRU       0.112000
     33 H14        137.8840   134.2290   107.8670 h1         1 WRU       0.042700
     34 H15        138.4510   135.8560   107.4650 h1         1 WRU       0.042700
     35 H16        135.3850   133.6790   107.9010 ha         1 WRU       0.112000
     36 H17        136.2590   135.1420   109.4530 h1         1 WRU       0.045700
     37 H18        140.8200   134.4120   109.9250 h1         1 WRU       0.031033
     38 H19        140.0140   133.5230   108.6350 h1         1 WRU       0.031033
     39 H20        140.7530   135.0950   108.2930 h1         1 WRU       0.031033
     40 H21        133.9720   140.0200   107.3980 ha         1 WRU       0.111000
@<TRIPOS>BOND
     1     1    15 ar  
     2     1    16 ar  
     3     1    17 1   
     4     2     3 ar  
     5     2     6 ar  
     6     2    21 1   
     7     3    16 ar  
     8     3    22 1   
     9     4     7 1   
    10     4    13 1   
    11     4    18 1   
    12     5    15 1   
    13     5    20 1   
    14     5    23 1   
    15     5    24 1   
    16     6    15 ar  
    17     6    25 1   
    18     7     8 1   
    19     7    26 1   
    20     7    27 1   
    21     8    14 1   
    22     8    28 1   
    23     8    29 1   
    24     9    10 ar  
    25     9    14 1   
    26     9    20 ar  
    27    10    11 ar  
    28    10    30 1   
    29    11    12 ar  
    30    11    31 1   
    31    12    19 ar  
    32    12    32 1   
    33    13    17 1   
    34    13    33 1   
    35    13    34 1   
    36    14    17 1   
    37    16    35 1   
    38    17    36 1   
    39    18    37 1   
    40    18    38 1   
    41    18    39 1   
    42    19    20 ar  
    43    19    40 1   
@<TRIPOS>SUBSTRUCTURE
     1 WRU         1 TEMP              0 ****  ****    0 ROOT
