@<TRIPOS>MOLECULE
WRU
   40    43     1     0     0
SMALL
No Charge or Current Charge


@<TRIPOS>ATOM
      1 C8         135.6990   135.6310   107.4940 ca         1 WRU      -0.079300
      2 C5         133.9980   135.3520   105.2490 ca         1 WRU      -0.105000
      3 C6         134.2390   134.2550   106.0870 ca         1 WRU      -0.113000
      4 N1         139.0800   135.1210   109.3760 n3         1 WRU      -0.720600
      5 C2         136.0370   138.1030   106.9470 c3         1 WRU       0.020200
      6 C4         134.6020   136.5870   105.5260 ca         1 WRU      -0.111000
      7 C11        139.1400   136.4160   110.1190 c6         1 WRU       0.160800
      8 C12        137.7370   136.8970   110.6150 c6         1 WRU       0.191800
      9 C13        135.7500   137.9700   109.4610 ca         1 WRU       0.277000
     10 C14        135.1370   138.4170   110.6500 ca         1 WRU      -0.153000
     11 C15        134.1940   139.4580   110.6250 ca         1 WRU      -0.094000
     12 C16        133.8580   140.0690   109.4080 ca         1 WRU      -0.127000
     13 C1         138.1010   135.2260   108.2470 c6         1 WRU       0.162800
     14 N2         136.7320   136.9510   109.5080 nh         1 WRU      -0.794400
     15 C3         135.4560   136.7360   106.6380 ca         1 WRU      -0.053300
     16 C7         135.0840   134.3950   107.1990 ca         1 WRU      -0.109000
     17 C9         136.6680   135.6770   108.7030 c6         1 WRU       0.261800
     18 C10        140.4110   134.6540   108.9350 c3         1 WRU       0.155100
     19 C17        134.4640   139.6380   108.2170 ca         1 WRU      -0.090000
     20 C18        135.4130   138.5960   108.2400 ca         1 WRU      -0.085300
     21 H1         133.3410   135.2470   104.3880 ha         1 WRU       0.113000
     22 H2         133.7730   133.2950   105.8740 ha         1 WRU       0.113000
     23 H4         137.1280   138.0490   107.0360 hc         1 WRU       0.060700
     24 H5         135.8420   138.8080   106.1290 hc         1 WRU       0.060700
     25 H6         134.3970   137.4350   104.8760 ha         1 WRU       0.110000
     26 H7         139.8060   136.3250   110.9900 h1         1 WRU       0.039200
     27 H8         139.5640   137.1990   109.4730 h1         1 WRU       0.039200
     28 H9         137.8570   137.8900   111.0730 h1         1 WRU       0.043200
     29 H10        137.3840   136.2150   111.4040 h1         1 WRU       0.043200
     30 H11        135.3860   137.9510   111.5980 ha         1 WRU       0.112000
     31 H12        133.7250   139.7910   111.5490 ha         1 WRU       0.110000
     32 H13        133.1270   140.8740   109.3860 ha         1 WRU       0.112000
     33 H14        138.0130   134.2540   107.7400 h1         1 WRU       0.042700
     34 H15        138.4680   135.9410   107.4950 h1         1 WRU       0.042700
     35 H16        135.2690   133.5300   107.8330 ha         1 WRU       0.112000
     36 H17        136.3150   134.8980   109.3940 h1         1 WRU       0.045700
     37 H18        141.0870   134.5430   109.7930 h1         1 WRU       0.031033
     38 H19        140.3340   133.6790   108.4360 h1         1 WRU       0.031033
     39 H20        140.8630   135.3660   108.2300 h1         1 WRU       0.031033
     40 H21        134.1920   140.1100   107.2760 ha         1 WRU       0.111000
@<TRIPOS>BOND
     1     1    15 ar  
     2     1    16 ar  
     3     1    17 1   
     4     2     3 ar  
     5     2     6 ar  
     6     2    21 1   
     7     3    16 ar  
     8     3    22 1   
     9     4     7 1   
    10     4    13 1   
    11     4    18 1   
    12     5    15 1   
    13     5    20 1   
    14     5    23 1   
    15     5    24 1   
    16     6    15 ar  
    17     6    25 1   
    18     7     8 1   
    19     7    26 1   
    20     7    27 1   
    21     8    14 1   
    22     8    28 1   
    23     8    29 1   
    24     9    10 ar  
    25     9    14 1   
    26     9    20 ar  
    27    10    11 ar  
    28    10    30 1   
    29    11    12 ar  
    30    11    31 1   
    31    12    19 ar  
    32    12    32 1   
    33    13    17 1   
    34    13    33 1   
    35    13    34 1   
    36    14    17 1   
    37    16    35 1   
    38    17    36 1   
    39    18    37 1   
    40    18    38 1   
    41    18    39 1   
    42    19    20 ar  
    43    19    40 1   
@<TRIPOS>SUBSTRUCTURE
     1 WRU         1 TEMP              0 ****  ****    0 ROOT
