@<TRIPOS>MOLECULE
WRV
   31    31     1     0     0
SMALL
bcc


@<TRIPOS>ATOM
      1 N1          -7.8970    14.3690     4.3730 ns         1 WRV      -0.595900
      2 C4          -7.5780    14.7910     3.1270 c          1 WRV       0.796100
      3 C5          -5.7130    14.5890     1.4870 ca         1 WRV       0.116600
      4 C6          -6.1900    15.4580     0.5040 ca         1 WRV      -0.197000
      5 C7          -5.4390    15.6360    -0.6410 ca         1 WRV       0.161900
      6 C8          -4.2310    15.0110    -0.8980 ca         1 WRV      -0.146300
      7 C10         -3.7830    14.1500     0.1000 ca         1 WRV      -0.074000
      8 C1          -9.5170    13.6920     6.0430 c3         1 WRV      -0.101100
      9 C2          -9.1050    14.7800     5.0620 c3         1 WRV       0.126700
     10 C3          -8.8720    16.1240     5.7470 c3         1 WRV       0.116400
     11 O1         -10.0740    16.5400     6.3510 oh         1 WRV      -0.595800
     12 N2          -6.3580    14.3310     2.6910 ns         1 WRV      -0.490100
     13 F1          -5.9230    16.4830    -1.5690 f          1 WRV      -0.144900
     14 C9          -3.4640    15.2510    -2.1640 c3         1 WRV      -0.032800
     15 C11         -4.4970    13.9370     1.2650 ca         1 WRV      -0.211000
     16 O2          -8.3120    15.5010     2.4530 o          1 WRV      -0.618100
     17 H1          -7.2150    13.8590     4.9130 hn         1 WRV       0.306500
     18 H2          -7.1220    15.9890     0.6170 ha         1 WRV       0.186000
     19 H3          -2.8430    13.6300    -0.0410 ha         1 WRV       0.132000
     20 H4         -10.4460    13.9540     6.5450 hc         1 WRV       0.046033
     21 H5          -9.6690    12.7440     5.5280 hc         1 WRV       0.046033
     22 H6          -8.7530    13.5450     6.8120 hc         1 WRV       0.046033
     23 H7          -9.8920    14.9000     4.3150 h1         1 WRV       0.093700
     24 H8          -8.0630    16.0060     6.4820 h1         1 WRV       0.025700
     25 H9          -8.5260    16.8480     4.9980 h1         1 WRV       0.025700
     26 H10         -9.9150    17.3790     6.7920 ho         1 WRV       0.409000
     27 H11         -5.8570    13.7110     3.3080 hn         1 WRV       0.310500
     28 H12         -3.1770    16.2970    -2.2750 hc         1 WRV       0.045033
     29 H13         -2.5520    14.6560    -2.1710 hc         1 WRV       0.045033
     30 H14         -4.0420    14.9780    -3.0480 hc         1 WRV       0.045033
     31 H15         -4.1040    13.2570     2.0120 ha         1 WRV       0.128000
@<TRIPOS>BOND
     1     1     2 1   
     2     1     9 1   
     3     1    17 1   
     4     2    12 1   
     5     2    16 2   
     6     3     4 ar  
     7     3    12 1   
     8     3    15 ar  
     9     4     5 ar  
    10     4    18 1   
    11     5     6 ar  
    12     5    13 1   
    13     6     7 ar  
    14     6    14 1   
    15     7    15 ar  
    16     7    19 1   
    17     8     9 1   
    18     8    20 1   
    19     8    21 1   
    20     8    22 1   
    21     9    10 1   
    22     9    23 1   
    23    10    11 1   
    24    10    24 1   
    25    10    25 1   
    26    11    26 1   
    27    12    27 1   
    28    14    28 1   
    29    14    29 1   
    30    14    30 1   
    31    15    31 1   
@<TRIPOS>SUBSTRUCTURE
     1 WRV         1 TEMP              0 ****  ****    0 ROOT
