@<TRIPOS>MOLECULE
WRV
   31    31     1     0     0
SMALL
No Charge or Current Charge


@<TRIPOS>ATOM
      1 N1          -7.9290    14.4010     4.3660 ns         1 WRV      -0.528900
      2 C4          -7.6180    14.9040     3.1240 c          1 WRV       0.662100
      3 C5          -5.7140    14.6340     1.4270 ca         1 WRV       0.024000
      4 C6          -6.1610    15.5070     0.4130 ca         1 WRV      -0.179000
      5 C7          -5.4040    15.6810    -0.7560 ca         1 WRV       0.197000
      6 C8          -4.1890    14.9920    -0.9390 ca         1 WRV      -0.146300
      7 C10         -3.7420    14.1210     0.0720 ca         1 WRV      -0.056000
      8 C1          -9.4660    13.6190     6.1190 c3         1 WRV      -0.101100
      9 C2          -9.1280    14.7590     5.1340 c3         1 WRV       0.126700
     10 C3          -8.9560    16.1390     5.8320 c3         1 WRV       0.139600
     11 O1         -10.1700    16.5480     6.4840 oh         1 WRV      -0.658000
     12 N2          -6.4220    14.4050     2.6380 ns         1 WRV      -0.164000
     13 F1          -5.8560    16.5240    -1.7120 f          1 WRV      -0.180000
     14 C9          -3.3690    15.1830    -2.2100 c3         1 WRV      -0.032800
     15 C11         -4.5010    13.9470     1.2420 ca         1 WRV      -0.193000
     16 O2          -8.3410    15.7000     2.5440 o          1 WRV      -0.618100
     17 H1          -7.2750    13.7440     4.7740 hn         1 WRV       0.306500
     18 H2          -7.0880    16.0610     0.5060 ha         1 WRV       0.168000
     19 H3          -2.8070    13.5770    -0.0470 ha         1 WRV       0.114000
     20 H4         -10.4050    13.8240     6.6470 hc         1 WRV       0.046033
     21 H5          -9.5840    12.6700     5.5820 hc         1 WRV       0.046033
     22 H6          -8.6710    13.4980     6.8640 hc         1 WRV       0.046033
     23 H7          -9.9660    14.8480     4.4290 h1         1 WRV       0.093700
     24 H8          -8.1380    16.0710     6.5620 h1         1 WRV       0.025700
     25 H9          -8.6680    16.8860     5.0810 h1         1 WRV       0.025700
     26 H10         -9.9930    17.4220     6.8990 ho         1 WRV       0.448000
     27 H11         -5.9600    13.7530     3.2580 hn         1 WRV       0.144000
     28 H12         -3.0720    16.2320    -2.3310 hc         1 WRV       0.045033
     29 H13         -2.4540    14.5790    -2.2000 hc         1 WRV       0.045033
     30 H14         -3.9460    14.8940    -3.0960 hc         1 WRV       0.045033
     31 H15         -4.1380    13.2700     2.0120 ha         1 WRV       0.110000
@<TRIPOS>BOND
     1     1     2 1   
     2     1     9 1   
     3     1    17 1   
     4     2    12 1   
     5     2    16 2   
     6     3     4 ar  
     7     3    12 1   
     8     3    15 ar  
     9     4     5 ar  
    10     4    18 1   
    11     5     6 ar  
    12     5    13 1   
    13     6     7 ar  
    14     6    14 1   
    15     7    15 ar  
    16     7    19 1   
    17     8     9 1   
    18     8    20 1   
    19     8    21 1   
    20     8    22 1   
    21     9    10 1   
    22     9    23 1   
    23    10    11 1   
    24    10    24 1   
    25    10    25 1   
    26    11    26 1   
    27    12    27 1   
    28    14    28 1   
    29    14    29 1   
    30    14    30 1   
    31    15    31 1   
@<TRIPOS>SUBSTRUCTURE
     1 WRV         1 TEMP              0 ****  ****    0 ROOT
