@<TRIPOS>MOLECULE
WRW
   48    51     1     0     0
SMALL
abcg2


@<TRIPOS>ATOM
      1 C33         22.0430     4.0950     4.1420 ca         1 WRW      -0.110000
      2 C28         20.8150     4.0300     3.4790 cp         1 WRW      -0.024000
      3 C10         19.5930     4.5920     4.0950 cp         1 WRW      -0.056667
      4 C15         18.3480     3.9780     3.9160 ca         1 WRW      -0.128500
      5 C14         17.2030     4.5030     4.4970 ca         1 WRW      -0.097167
      6 C13         17.2560     5.6600     5.2770 ca         1 WRW      -0.134267
      7 C12         18.4960     6.2740     5.4560 ca         1 WRW      -0.097167
      8 C11         19.6440     5.7520     4.8780 ca         1 WRW      -0.128500
      9 C32         23.2010     3.5590     3.5760 cp         1 WRW      -0.024000
     10 C22         24.4910     3.6050     4.3010 cp         1 WRW      -0.056667
     11 C27         24.8320     4.7020     5.1020 ca         1 WRW      -0.128500
     12 C26         26.0430     4.7410     5.7790 ca         1 WRW      -0.097167
     13 C25         26.9540     3.6870     5.6890 ca         1 WRW      -0.134267
     14 C24         26.6130     2.5920     4.8930 ca         1 WRW      -0.097167
     15 C23         25.4070     2.5510     4.2100 ca         1 WRW      -0.128500
     16 C31         23.1160     2.9550     2.3190 ca         1 WRW      -0.110000
     17 C30         21.9030     2.8750     1.6310 cp         1 WRW      -0.024000
     18 C29         20.7610     3.4180     2.2240 ca         1 WRW      -0.110000
     19 C16         21.8350     2.2330     0.3000 cp         1 WRW      -0.056667
     20 C21         22.8960     2.3390    -0.6080 ca         1 WRW      -0.128500
     21 C20         22.8370     1.7200    -1.8490 ca         1 WRW      -0.097167
     22 C19         21.7220     0.9730    -2.2300 ca         1 WRW      -0.134267
     23 C18         20.6610     0.8720    -1.3290 ca         1 WRW      -0.097167
     24 C17         20.7130     1.4900    -0.0870 ca         1 WRW      -0.128500
     25 C3T         15.9930     6.2370     5.9130 c          1 WRW       0.707933
     26 O2T         16.1300     7.2740     6.6130 o          1 WRW      -0.737000
     27 C3U         28.2830     3.7300     6.4380 c          1 WRW       0.707933
     28 O2U         29.0330     2.7250     6.3290 o          1 WRW      -0.737000
     29 C3V         21.6680     0.2810    -3.5900 c          1 WRW       0.707933
     30 O2V         20.6210    -0.3600    -3.8630 o          1 WRW      -0.737000
     31 H1          22.0890     4.5300     5.1310 ha         1 WRW       0.113000
     32 H2          18.2790     3.0690     3.3320 ha         1 WRW       0.094500
     33 H3          16.2490     4.0140     4.3560 ha         1 WRW       0.120000
     34 H4          18.5490     7.1750     6.0520 ha         1 WRW       0.120000
     35 H5          20.5900     6.2610     5.0190 ha         1 WRW       0.094500
     36 H6          24.1520     5.5410     5.1780 ha         1 WRW       0.094500
     37 H7          26.3000     5.5990     6.3860 ha         1 WRW       0.120000
     38 H8          27.3060     1.7660     4.8210 ha         1 WRW       0.120000
     39 H9          25.1620     1.6800     3.6150 ha         1 WRW       0.094500
     40 H10         24.0060     2.5360     1.8710 ha         1 WRW       0.113000
     41 H11         19.8220     3.3940     1.6880 ha         1 WRW       0.113000
     42 H12         23.7680     2.9250    -0.3460 ha         1 WRW       0.094500
     43 H13         23.6630     1.8150    -2.5410 ha         1 WRW       0.120000
     44 H14         19.7920     0.2930    -1.6120 ha         1 WRW       0.120000
     45 H15         19.8840     1.3760     0.6000 ha         1 WRW       0.094500
     46 O1          28.5290     4.7660     7.1080 o          1 WRW      -0.737000
     47 O2          14.9140     5.6330     5.6890 o          1 WRW      -0.737000
     48 O3          22.6760     0.4030    -4.3330 o          1 WRW      -0.737000
@<TRIPOS>BOND
     1     1     2 ar  
     2     1     9 ar  
     3     1    31 1   
     4     2     3 1   
     5     2    18 ar  
     6     3     4 ar  
     7     3     8 ar  
     8     4     5 ar  
     9     4    32 1   
    10     5     6 ar  
    11     5    33 1   
    12     6     7 ar  
    13     6    25 1   
    14     7     8 ar  
    15     7    34 1   
    16     8    35 1   
    17     9    10 1   
    18     9    16 ar  
    19    10    11 ar  
    20    10    15 ar  
    21    11    12 ar  
    22    11    36 1   
    23    12    13 ar  
    24    12    37 1   
    25    13    14 ar  
    26    13    27 1   
    27    14    15 ar  
    28    14    38 1   
    29    15    39 1   
    30    16    17 ar  
    31    16    40 1   
    32    17    18 ar  
    33    17    19 1   
    34    18    41 1   
    35    19    20 ar  
    36    19    24 ar  
    37    20    21 ar  
    38    20    42 1   
    39    21    22 ar  
    40    21    43 1   
    41    22    23 ar  
    42    22    29 1   
    43    23    24 ar  
    44    23    44 1   
    45    24    45 1   
    46    25    26 1   
    47    25    47 1   
    48    27    28 1   
    49    27    46 1   
    50    29    30 1   
    51    29    48 1   
@<TRIPOS>SUBSTRUCTURE
     1 WRW         1 TEMP              0 ****  ****    0 ROOT
