@<TRIPOS>MOLECULE
WRW
   48    51     1     0     0
SMALL
No Charge or Current Charge


@<TRIPOS>ATOM
      1 C33         22.0450     4.0640     4.1620 ca         1 WRW      -0.110000
      2 C28         20.7960     4.0100     3.4960 cp         1 WRW      -0.024000
      3 C10         19.5610     4.5910     4.1150 cp         1 WRW      -0.056667
      4 C15         18.2920     3.9920     3.9220 ca         1 WRW      -0.128500
      5 C14         17.1320     4.5350     4.5020 ca         1 WRW      -0.097167
      6 C13         17.1970     5.7020     5.2970 ca         1 WRW      -0.134267
      7 C12         18.4600     6.3060     5.4930 ca         1 WRW      -0.097167
      8 C11         19.6180     5.7590     4.9130 ca         1 WRW      -0.128500
      9 C32         23.2270     3.5230     3.6030 cp         1 WRW      -0.024000
     10 C22         24.5330     3.5890     4.3360 cp         1 WRW      -0.056667
     11 C27         24.8650     4.7040     5.1440 ca         1 WRW      -0.128500
     12 C26         26.0890     4.7690     5.8330 ca         1 WRW      -0.097167
     13 C25         27.0300     3.7180     5.7390 ca         1 WRW      -0.134267
     14 C24         26.7050     2.6020     4.9350 ca         1 WRW      -0.097167
     15 C23         25.4800     2.5410     4.2470 ca         1 WRW      -0.128500
     16 C31         23.1300     2.9130     2.3290 ca         1 WRW      -0.110000
     17 C30         21.9090     2.8310     1.6180 cp         1 WRW      -0.024000
     18 C29         20.7580     3.3870     2.2260 ca         1 WRW      -0.110000
     19 C16         21.8370     2.1840     0.2670 cp         1 WRW      -0.056667
     20 C21         22.9090     2.2840    -0.6530 ca         1 WRW      -0.128500
     21 C20         22.8420     1.6780    -1.9200 ca         1 WRW      -0.097167
     22 C19         21.6980     0.9470    -2.3150 ca         1 WRW      -0.134267
     23 C18         20.6250     0.8430    -1.4010 ca         1 WRW      -0.097167
     24 C17         20.6950     1.4510    -0.1350 ca         1 WRW      -0.128500
     25 C3T         15.9420     6.2920     5.9250 c          1 WRW       0.707933
     26 O2T         16.0450     7.3030     6.6060 o          1 WRW      -0.737000
     27 C3U         28.3560     3.7870     6.4840 c          1 WRW       0.707933
     28 O2U         29.1400     2.8540     6.3740 o          1 WRW      -0.737000
     29 C3V         21.6250     0.2900    -3.6870 c          1 WRW       0.707933
     30 O2V         20.6150    -0.3320    -3.9860 o          1 WRW      -0.737000
     31 H1          22.0910     4.5120     5.1500 ha         1 WRW       0.113000
     32 H2          18.2040     3.0860     3.3280 ha         1 WRW       0.094500
     33 H3          16.1780     4.0400     4.3310 ha         1 WRW       0.120000
     34 H4          18.5500     7.2070     6.0960 ha         1 WRW       0.120000
     35 H5          20.5700     6.2590     5.0750 ha         1 WRW       0.094500
     36 H6          24.1720     5.5370     5.2300 ha         1 WRW       0.094500
     37 H7          26.3040     5.6460     6.4390 ha         1 WRW       0.120000
     38 H8          27.4020     1.7720     4.8410 ha         1 WRW       0.120000
     39 H9          25.2610     1.6600     3.6490 ha         1 WRW       0.094500
     40 H10         24.0250     2.4920     1.8810 ha         1 WRW       0.113000
     41 H11         19.8160     3.3600     1.6850 ha         1 WRW       0.113000
     42 H12         23.7990     2.8490    -0.3910 ha         1 WRW       0.094500
     43 H13         23.6870     1.7830    -2.5980 ha         1 WRW       0.120000
     44 H14         19.7290     0.2860    -1.6680 ha         1 WRW       0.120000
     45 H15         19.8550     1.3380     0.5450 ha         1 WRW       0.094500
     46 O1          28.5950     4.7710     7.1690 o          1 WRW      -0.737000
     47 O2          14.8700     5.7370     5.7280 o          1 WRW      -0.737000
     48 O3          22.5770     0.4050    -4.4450 o          1 WRW      -0.737000
@<TRIPOS>BOND
     1     1     2 ar  
     2     1     9 ar  
     3     1    31 1   
     4     2     3 1   
     5     2    18 ar  
     6     3     4 ar  
     7     3     8 ar  
     8     4     5 ar  
     9     4    32 1   
    10     5     6 ar  
    11     5    33 1   
    12     6     7 ar  
    13     6    25 1   
    14     7     8 ar  
    15     7    34 1   
    16     8    35 1   
    17     9    10 1   
    18     9    16 ar  
    19    10    11 ar  
    20    10    15 ar  
    21    11    12 ar  
    22    11    36 1   
    23    12    13 ar  
    24    12    37 1   
    25    13    14 ar  
    26    13    27 1   
    27    14    15 ar  
    28    14    38 1   
    29    15    39 1   
    30    16    17 ar  
    31    16    40 1   
    32    17    18 ar  
    33    17    19 1   
    34    18    41 1   
    35    19    20 ar  
    36    19    24 ar  
    37    20    21 ar  
    38    20    42 1   
    39    21    22 ar  
    40    21    43 1   
    41    22    23 ar  
    42    22    29 1   
    43    23    24 ar  
    44    23    44 1   
    45    24    45 1   
    46    25    26 1   
    47    25    47 1   
    48    27    28 1   
    49    27    46 1   
    50    29    30 1   
    51    29    48 1   
@<TRIPOS>SUBSTRUCTURE
     1 WRW         1 TEMP              0 ****  ****    0 ROOT
