@<TRIPOS>MOLECULE
WRY
   27    28     1     0     0
SMALL
No Charge or Current Charge


@<TRIPOS>ATOM
      1 N1          -7.9290    14.8300     4.9970 ns         1 WRY      -0.507900
      2 C4          -3.8980    14.8600    -0.7810 ca         1 WRY       0.188000
      3 C5          -3.2730    14.9800     0.4680 ca         1 WRY      -0.151000
      4 C6          -4.0550    15.0590     1.6310 ca         1 WRY      -0.058000
      5 C7          -5.4600    15.0170     1.5350 ca         1 WRY      -0.115000
      6 C8          -6.2490    15.0970     2.6930 ca         1 WRY      -0.031000
      7 C10         -8.5310    15.1570     3.8020 c          1 WRY       0.615700
      8 O           -9.6880    15.5470     3.7770 o          1 WRY      -0.588100
      9 C11         -8.5930    14.8930     6.3020 c3         1 WRY       0.094300
     10 C9          -7.6580    15.0580     2.5750 ca         1 WRY      -0.205600
     11 C1          -8.2040    14.9370     1.2720 ca         1 WRY       0.425300
     12 C           -9.6950    14.8360     0.9780 c3         1 WRY      -0.156400
     13 C2          -6.0920    14.8980     0.2760 ca         1 WRY       0.315000
     14 N           -7.4340    14.8580     0.1620 nb         1 WRY      -0.680000
     15 C3          -5.2950    14.8190    -0.8770 ca         1 WRY      -0.138000
     16 H1          -6.9750    14.4940     4.9570 hn         1 WRY       0.318500
     17 H2          -2.1880    15.0110     0.5320 ha         1 WRY       0.135000
     18 H3          -3.5690    15.1530     2.6010 ha         1 WRY       0.120000
     19 H4          -5.7620    15.2110     3.6590 ha         1 WRY       0.121000
     20 H5          -7.8940    14.5750     7.0860 h1         1 WRY       0.042033
     21 H6          -8.9170    15.9220     6.5030 h1         1 WRY       0.042033
     22 H7          -9.4670    14.2280     6.3050 h1         1 WRY       0.042033
     23 H8          -9.8900    14.5700    -0.0680 hc         1 WRY       0.063367
     24 H9         -10.1670    14.0660     1.5970 hc         1 WRY       0.063367
     25 H10        -10.1960    15.7910     1.1690 hc         1 WRY       0.063367
     26 H11         -5.7650    14.7270    -1.8510 ha         1 WRY       0.151000
     27 F           -3.1460    14.7840    -1.9010 f          1 WRY      -0.170000
@<TRIPOS>BOND
     1     1     7 1   
     2     1     9 1   
     3     1    16 1   
     4     2     3 ar  
     5     2    15 ar  
     6     2    27 1   
     7     3     4 ar  
     8     3    17 1   
     9     4     5 ar  
    10     4    18 1   
    11     5     6 ar  
    12     5    13 ar  
    13     6    10 ar  
    14     6    19 1   
    15     7     8 2   
    16     7    10 1   
    17     9    20 1   
    18     9    21 1   
    19     9    22 1   
    20    10    11 ar  
    21    11    12 1   
    22    11    14 ar  
    23    12    23 1   
    24    12    24 1   
    25    12    25 1   
    26    13    14 ar  
    27    13    15 ar  
    28    15    26 1   
@<TRIPOS>SUBSTRUCTURE
     1 WRY         1 TEMP              0 ****  ****    0 ROOT
