@<TRIPOS>MOLECULE
WRY
   27    28     1     0     0
SMALL
abcg2


@<TRIPOS>ATOM
      1 N1          -8.0760    14.6390     4.8760 ns         1 WRY      -0.507900
      2 C4          -3.9470    14.8250    -0.7800 ca         1 WRY       0.188000
      3 C5          -3.2710    15.0970     0.4200 ca         1 WRY      -0.151000
      4 C6          -4.0000    15.2470     1.5660 ca         1 WRY      -0.058000
      5 C7          -5.4050    15.1280     1.5460 ca         1 WRY      -0.115000
      6 C8          -6.2120    15.2660     2.6920 ca         1 WRY      -0.031000
      7 C10         -8.4210    15.3670     3.8050 c          1 WRY       0.615700
      8 O           -9.3410    16.1700     3.8100 o          1 WRY      -0.588100
      9 C11         -8.7240    14.7960     6.1570 c3         1 WRY       0.094300
     10 C9          -7.5700    15.1470     2.5940 ca         1 WRY      -0.205600
     11 C1          -8.1470    14.8810     1.3160 ca         1 WRY       0.425300
     12 C           -9.6260    14.7230     1.1540 c3         1 WRY      -0.156400
     13 C2          -6.0650    14.8600     0.3260 ca         1 WRY       0.315000
     14 N           -7.4100    14.7390     0.2440 nb         1 WRY      -0.680000
     15 C3          -5.3040    14.7060    -0.8510 ca         1 WRY      -0.138000
     16 H1          -7.3380    13.9630     4.7940 hn         1 WRY       0.318500
     17 H2          -2.1930    15.1810     0.4240 ha         1 WRY       0.135000
     18 H3          -3.4950    15.4580     2.5000 ha         1 WRY       0.120000
     19 H4          -5.7420    15.4860     3.6430 ha         1 WRY       0.121000
     20 H5          -8.2990    14.0720     6.8450 h1         1 WRY       0.042033
     21 H6          -8.5680    15.7940     6.5660 h1         1 WRY       0.042033
     22 H7          -9.7960    14.6160     6.0870 h1         1 WRY       0.042033
     23 H8          -9.8590    14.4240     0.1360 hc         1 WRY       0.063367
     24 H9         -10.0190    13.9660     1.8330 hc         1 WRY       0.063367
     25 H10        -10.1480    15.6520     1.3770 hc         1 WRY       0.063367
     26 H11         -5.7950    14.4940    -1.7920 ha         1 WRY       0.151000
     27 F           -3.2180    14.6800    -1.8880 f          1 WRY      -0.170000
@<TRIPOS>BOND
     1     1     7 1   
     2     1     9 1   
     3     1    16 1   
     4     2     3 ar  
     5     2    15 ar  
     6     2    27 1   
     7     3     4 ar  
     8     3    17 1   
     9     4     5 ar  
    10     4    18 1   
    11     5     6 ar  
    12     5    13 ar  
    13     6    10 ar  
    14     6    19 1   
    15     7     8 2   
    16     7    10 1   
    17     9    20 1   
    18     9    21 1   
    19     9    22 1   
    20    10    11 ar  
    21    11    12 1   
    22    11    14 ar  
    23    12    23 1   
    24    12    24 1   
    25    12    25 1   
    26    13    14 ar  
    27    13    15 ar  
    28    15    26 1   
@<TRIPOS>SUBSTRUCTURE
     1 WRY         1 TEMP              0 ****  ****    0 ROOT
