@<TRIPOS>MOLECULE
WRZ
   39    40     1     0     0
SMALL
abcg2


@<TRIPOS>ATOM
      1 C10         13.8630   -21.2410    30.0170 ca         1 WRZ      -0.182600
      2 C11         13.4850   -22.3580    29.2770 ca         1 WRZ      -0.040500
      3 C12         13.9360   -23.6300    29.5930 ca         1 WRZ      -0.166500
      4 C13         14.7910   -23.8130    30.6820 ca         1 WRZ       0.007000
      5 C14         15.1750   -22.6930    31.4280 ca         1 WRZ      -0.166500
      6 C15         14.7130   -21.4350    31.1050 ca         1 WRZ      -0.040500
      7 C17         15.0980   -26.2850    30.5620 c          1 WRZ       0.608100
      8 C18         15.7080   -27.4020    31.3790 c3         1 WRZ      -0.163400
      9 C01          9.8420   -18.9140    28.5180 ca         1 WRZ       0.139000
     10 C02          8.6130   -18.7130    29.1250 ca         1 WRZ      -0.104000
     11 C03          8.4960   -17.6990    30.0620 ca         1 WRZ       0.131000
     12 C04          9.5770   -16.8970    30.3870 ca         1 WRZ      -0.104000
     13 C05         10.7910   -17.1290    29.7620 ca         1 WRZ      -0.064000
     14 C06         10.9560   -18.1340    28.8160 ca         1 WRZ      -0.097300
     15 C07         12.2930   -18.3520    28.1570 c3         1 WRZ       0.160300
     16 C09         13.3650   -19.8620    29.7460 c          1 WRZ       0.620700
     17 C23         14.7720   -27.8200    32.5140 c3         1 WRZ      -0.088100
     18 N08         12.8960   -19.6180    28.5080 ns         1 WRZ      -0.504900
     19 N16         15.2840   -25.0450    31.1010 ns         1 WRZ      -0.150000
     20 O19         14.4670   -26.4900    29.5430 o          1 WRZ      -0.571100
     21 O20         13.3860   -18.9980    30.6120 o          1 WRZ      -0.607100
     22 CL22         9.9610   -20.1780    27.3390 cl         1 WRZ      -0.207000
     23 H111        12.7940   -22.2680    28.4480 ha         1 WRZ       0.124500
     24 H121        13.6080   -24.4650    28.9970 ha         1 WRZ       0.132000
     25 H141        15.8410   -22.8150    32.2740 ha         1 WRZ       0.132000
     26 H151        15.0190   -20.5910    31.7080 ha         1 WRZ       0.124500
     27 H181        15.8840   -28.2460    30.7130 hc         1 WRZ       0.067200
     28 H182        16.6750   -27.0990    31.7870 hc         1 WRZ       0.067200
     29 H021         7.7650   -19.3340    28.8710 ha         1 WRZ       0.144000
     30 H041         9.4790   -16.1080    31.1200 ha         1 WRZ       0.135000
     31 H051        11.6400   -16.5080    30.0180 ha         1 WRZ       0.131000
     32 H071        12.9610   -17.5300    28.4200 h1         1 WRZ       0.060700
     33 H072        12.1870   -18.3360    27.0720 h1         1 WRZ       0.060700
     34 H233        15.1940   -28.6640    33.0570 hc         1 WRZ       0.044033
     35 H231        14.6160   -27.0100    33.2270 hc         1 WRZ       0.044033
     36 H232        13.7990   -28.1240    32.1300 hc         1 WRZ       0.044033
     37 H081        12.9640   -20.3190    27.7910 hn         1 WRZ       0.323500
     38 H161        15.8480   -25.0100    31.9380 hn         1 WRZ       0.152000
     39 CL21         6.9680   -17.4390    30.8310 cl         1 WRZ      -0.194000
@<TRIPOS>BOND
     1     1     2 ar  
     2     1     6 ar  
     3     1    16 1   
     4     2     3 ar  
     5     2    23 1   
     6     3     4 ar  
     7     3    24 1   
     8     4     5 ar  
     9     4    19 1   
    10     5     6 ar  
    11     5    25 1   
    12     6    26 1   
    13     7     8 1   
    14     7    19 1   
    15     7    20 2   
    16     8    17 1   
    17     8    27 1   
    18     8    28 1   
    19     9    10 ar  
    20     9    14 ar  
    21     9    22 1   
    22    10    11 ar  
    23    10    29 1   
    24    11    12 ar  
    25    11    39 1   
    26    12    13 ar  
    27    12    30 1   
    28    13    14 ar  
    29    13    31 1   
    30    14    15 1   
    31    15    18 1   
    32    15    32 1   
    33    15    33 1   
    34    16    18 1   
    35    16    21 2   
    36    17    34 1   
    37    17    35 1   
    38    17    36 1   
    39    18    37 1   
    40    19    38 1   
@<TRIPOS>SUBSTRUCTURE
     1 WRZ         1 TEMP              0 ****  ****    0 ROOT
