@<TRIPOS>MOLECULE
WRZ
   39    40     1     0     0
SMALL
No Charge or Current Charge


@<TRIPOS>ATOM
      1 C10         13.9640   -21.1800    30.0270 ca         1 WRZ      -0.182600
      2 C11         13.5480   -22.3280    29.3110 ca         1 WRZ      -0.040500
      3 C12         13.9790   -23.6100    29.6950 ca         1 WRZ      -0.166500
      4 C13         14.8380   -23.7790    30.8010 ca         1 WRZ       0.007000
      5 C14         15.2470   -22.6410    31.5150 ca         1 WRZ      -0.166500
      6 C15         14.8190   -21.3580    31.1360 ca         1 WRZ      -0.040500
      7 C17         15.1770   -26.3270    30.7350 c          1 WRZ       0.608100
      8 C18         15.8620   -27.4150    31.5750 c3         1 WRZ      -0.163400
      9 C01          9.6130   -18.7190    28.3520 ca         1 WRZ       0.139000
     10 C02          8.4090   -18.4000    29.0010 ca         1 WRZ      -0.104000
     11 C03          8.3970   -17.4510    30.0330 ca         1 WRZ       0.131000
     12 C04          9.5880   -16.8190    30.4220 ca         1 WRZ      -0.104000
     13 C05         10.7950   -17.1350    29.7750 ca         1 WRZ      -0.064000
     14 C06         10.8180   -18.0850    28.7330 ca         1 WRZ      -0.097300
     15 C07         12.1400   -18.4150    28.0500 c3         1 WRZ       0.160300
     16 C09         13.5220   -19.7820    29.6460 c          1 WRZ       0.620700
     17 C23         14.8370   -28.2900    32.3320 c3         1 WRZ      -0.088100
     18 N08         12.7020   -19.6710    28.5470 ns         1 WRZ      -0.504900
     19 N16         15.3100   -25.0430    31.2480 ns         1 WRZ      -0.150000
     20 O19         14.6000   -26.6010    29.6890 o          1 WRZ      -0.571100
     21 O20         13.8700   -18.7950    30.2800 o          1 WRZ      -0.607100
     22 Cl22         9.5830   -19.9260    27.0650 cl         1 WRZ      -0.207000
     23 H111        12.8850   -22.2490    28.4520 ha         1 WRZ       0.124500
     24 H121        13.6270   -24.4590    29.1190 ha         1 WRZ       0.132000
     25 H141        15.9060   -22.7470    32.3750 ha         1 WRZ       0.132000
     26 H151        15.1580   -20.4980    31.7120 ha         1 WRZ       0.124500
     27 H181        16.4390   -28.0640    30.9060 hc         1 WRZ       0.067200
     28 H182        16.5320   -26.9570    32.3130 hc         1 WRZ       0.067200
     29 H021         7.4860   -18.8900    28.7040 ha         1 WRZ       0.144000
     30 H041         9.5760   -16.0860    31.2250 ha         1 WRZ       0.135000
     31 H051        11.7150   -16.6440    30.0870 ha         1 WRZ       0.131000
     32 H071        12.8610   -17.6030    28.2130 h1         1 WRZ       0.060700
     33 H072        11.9900   -18.4970    26.9660 h1         1 WRZ       0.060700
     34 H233        15.3500   -29.0590    32.9220 hc         1 WRZ       0.044033
     35 H231        14.2340   -27.6790    33.0160 hc         1 WRZ       0.044033
     36 H232        14.1590   -28.7920    31.6310 hc         1 WRZ       0.044033
     37 H081        12.4500   -20.5260    28.0710 hn         1 WRZ       0.323500
     38 H161        15.8390   -24.9970    32.1090 hn         1 WRZ       0.152000
     39 Cl21         6.8870   -17.0550    30.8440 cl         1 WRZ      -0.194000
@<TRIPOS>BOND
     1     1     2 ar  
     2     1     6 ar  
     3     1    16 1   
     4     2     3 ar  
     5     2    23 1   
     6     3     4 ar  
     7     3    24 1   
     8     4     5 ar  
     9     4    19 1   
    10     5     6 ar  
    11     5    25 1   
    12     6    26 1   
    13     7     8 1   
    14     7    19 1   
    15     7    20 2   
    16     8    17 1   
    17     8    27 1   
    18     8    28 1   
    19     9    10 ar  
    20     9    14 ar  
    21     9    22 1   
    22    10    11 ar  
    23    10    29 1   
    24    11    12 ar  
    25    11    39 1   
    26    12    13 ar  
    27    12    30 1   
    28    13    14 ar  
    29    13    31 1   
    30    14    15 1   
    31    15    18 1   
    32    15    32 1   
    33    15    33 1   
    34    16    18 1   
    35    16    21 2   
    36    17    34 1   
    37    17    35 1   
    38    17    36 1   
    39    18    37 1   
    40    19    38 1   
@<TRIPOS>SUBSTRUCTURE
     1 WRZ         1 TEMP              0 ****  ****    0 ROOT
