@<TRIPOS>MOLECULE
WS0
   54    57     1     0     0
SMALL
abcg2


@<TRIPOS>ATOM
      1 C1         137.4070   110.3660    94.1690 c3         1 WS0      -0.202400
      2 C10        135.8390   116.0230   102.4100 ce         1 WS0       0.440900
      3 C11        134.5830   117.4850   103.6350 ca         1 WS0      -0.152600
      4 C12        133.5250   118.4080   103.7310 ca         1 WS0       0.437900
      5 C13        134.0780   118.7520   105.9040 ca         1 WS0       0.192900
      6 C14        135.3400   117.3000   104.7770 ca         1 WS0       0.363300
      7 C15        136.9400   116.1540   103.4630 c6         1 WS0       0.120700
      8 C16        137.7930   114.9220   103.7010 c3         1 WS0      -0.099600
      9 C17        137.8230   117.3320   103.0510 c3         1 WS0      -0.099600
     10 C18        135.8520   115.9170    99.9480 ca         1 WS0      -0.087000
     11 C19        135.9910   115.2450    98.7440 ca         1 WS0      -0.116000
     12 C2         137.2510   110.9480    95.5690 c6         1 WS0      -0.039700
     13 C20        135.6220   111.9230    97.2570 c6         1 WS0      -0.064900
     14 C3         138.1150   112.1970    95.7410 c6         1 WS0      -0.072400
     15 C4         137.9480   112.8440    97.1120 c6         1 WS0      -0.064900
     16 C5         136.4790   113.1840    97.3840 c6         1 WS0      -0.027400
     17 C6         136.3090   113.8900    98.7030 ca         1 WS0      -0.035300
     18 C7         136.4850   113.2300    99.9180 ca         1 WS0      -0.116000
     19 C8         136.3580   113.8970   101.1270 ca         1 WS0      -0.087000
     20 C9         136.0420   115.2560   101.1620 ca         1 WS0      -0.146900
     21 N1         132.7380   118.6720   102.6860 nv         1 WS0      -1.059900
     22 N2         133.2950   119.0500   104.8870 nb         1 WS0      -0.294000
     23 O1         136.7420   108.1800    94.8530 o          1 WS0      -0.740500
     24 O2         136.3420   116.4270   104.7510 os         1 WS0      -0.443300
     25 N          134.7750   116.7220   102.4980 nf         1 WS0      -0.532100
     26 C          136.7130   109.0120    93.9210 c          1 WS0       0.715000
     27 O          136.2090   108.8370    92.7930 o          1 WS0      -0.740500
     28 C21        135.7920   111.2760    95.8860 c6         1 WS0      -0.072400
     29 N3         135.0980   117.9050   105.9290 nb         1 WS0      -0.240000
     30 H1         138.4780   110.2230    93.9700 hc         1 WS0       0.017200
     31 H2         137.0640   111.0990    93.4320 hc         1 WS0       0.017200
     32 H3         133.8640   119.2660   106.8360 h5         1 WS0       0.044100
     33 H4         138.5170   115.1370   104.4870 hc         1 WS0       0.054033
     34 H5         137.1980   114.0640   104.0120 hc         1 WS0       0.054033
     35 H6         138.3510   114.6550   102.8060 hc         1 WS0       0.054033
     36 H7         138.6110   117.4870   103.7900 hc         1 WS0       0.054033
     37 H8         138.2960   117.1190   102.0920 hc         1 WS0       0.054033
     38 H9         137.2560   118.2580   102.9470 hc         1 WS0       0.054033
     39 H10        135.6040   116.9710    99.9470 ha         1 WS0       0.110500
     40 H11        135.8480   115.7870    97.8160 ha         1 WS0       0.119500
     41 H12        137.5930   110.2000    96.2940 hc         1 WS0       0.059700
     42 H13        134.5710   112.1680    97.4300 hc         1 WS0       0.029950
     43 H14        135.9040   111.2030    98.0330 hc         1 WS0       0.029950
     44 H15        139.1670   111.9460    95.5760 hc         1 WS0       0.039700
     45 H16        137.8510   112.9280    94.9670 hc         1 WS0       0.039700
     46 H17        138.3130   112.1650    97.8900 hc         1 WS0       0.029950
     47 H18        138.5580   113.7490    97.1780 hc         1 WS0       0.029950
     48 H19        136.1570   113.8790    96.5980 hc         1 WS0       0.048700
     49 H20        136.7220   112.1730    99.9320 ha         1 WS0       0.119500
     50 H21        136.4750   113.3360   102.0430 ha         1 WS0       0.110500
     51 H22        131.9390   119.2710   102.7960 hn         1 WS0       0.507500
     52 H23        132.8420   118.1570   101.8280 hn         1 WS0       0.507500
     53 H25        135.4030   111.9550    95.1170 hc         1 WS0       0.039700
     54 H26        135.1860   110.3690    95.8330 hc         1 WS0       0.039700
@<TRIPOS>BOND
     1     1    12 1   
     2     1    26 1   
     3     1    30 1   
     4     1    31 1   
     5     2     7 1   
     6     2    20 1   
     7     2    25 2   
     8     3     4 ar  
     9     3     6 ar  
    10     3    25 1   
    11     4    21 1   
    12     4    22 ar  
    13     5    22 ar  
    14     5    29 ar  
    15     5    32 1   
    16     6    24 1   
    17     6    29 ar  
    18     7     8 1   
    19     7     9 1   
    20     7    24 1   
    21     8    33 1   
    22     8    34 1   
    23     8    35 1   
    24     9    36 1   
    25     9    37 1   
    26     9    38 1   
    27    10    11 ar  
    28    10    20 ar  
    29    10    39 1   
    30    11    17 ar  
    31    11    40 1   
    32    12    14 1   
    33    12    28 1   
    34    12    41 1   
    35    13    16 1   
    36    13    28 1   
    37    13    42 1   
    38    13    43 1   
    39    14    15 1   
    40    14    44 1   
    41    14    45 1   
    42    15    16 1   
    43    15    46 1   
    44    15    47 1   
    45    16    17 1   
    46    16    48 1   
    47    17    18 ar  
    48    18    19 ar  
    49    18    49 1   
    50    19    20 ar  
    51    19    50 1   
    52    21    51 1   
    53    21    52 1   
    54    23    26 1   
    55    26    27 1   
    56    28    53 1   
    57    28    54 1   
@<TRIPOS>SUBSTRUCTURE
     1 WS0         1 TEMP              0 ****  ****    0 ROOT
