@<TRIPOS>MOLECULE
WS0
   54    57     1     0     0
SMALL
No Charge or Current Charge


@<TRIPOS>ATOM
      1 C1         137.5400   110.2470    94.1560 c3         1 WS0      -0.202400
      2 C10        135.7220   115.8960   102.4980 ce         1 WS0       0.440900
      3 C11        134.4290   117.4820   103.7460 ca         1 WS0      -0.152600
      4 C12        133.3020   118.3180   103.8780 ca         1 WS0       0.437900
      5 C13        134.1110   119.1420   105.8440 ca         1 WS0       0.192900
      6 C14        135.3960   117.5700   104.7770 ca         1 WS0       0.363300
      7 C15        136.9290   116.2080   103.4440 c6         1 WS0       0.120700
      8 C16        137.7530   114.9410   103.8030 c3         1 WS0      -0.099600
      9 C17        137.8720   117.2530   102.7800 c3         1 WS0      -0.099600
     10 C18        135.9080   115.9510    99.9870 ca         1 WS0      -0.087000
     11 C19        136.1320   115.3190    98.7520 ca         1 WS0      -0.116000
     12 C2         137.2660   110.9090    95.5450 c6         1 WS0      -0.039700
     13 C20        135.5970   112.1730    97.0360 c6         1 WS0      -0.064900
     14 C3         138.3310   111.9980    95.8610 c6         1 WS0      -0.072400
     15 C4         138.0880   112.6550    97.2420 c6         1 WS0      -0.064900
     16 C5         136.6620   113.2610    97.3390 c6         1 WS0      -0.027400
     17 C6         136.4180   113.9420    98.6950 ca         1 WS0      -0.035300
     18 C7         136.4670   113.2050    99.8950 ca         1 WS0      -0.116000
     19 C8         136.2440   113.8360   101.1310 ca         1 WS0      -0.087000
     20 C9         135.9810   115.2190   101.1890 ca         1 WS0      -0.146900
     21 N1         132.3030   118.3260   102.9570 nv         1 WS0      -1.059900
     22 N2         133.1320   119.1440   104.9170 nb         1 WS0      -0.294000
     23 O1         137.0080   107.9380    94.3310 o          1 WS0      -0.740500
     24 O2         136.5280   116.7790   104.7220 os         1 WS0      -0.443300
     25 N          134.6050   116.5720   102.6510 nf         1 WS0      -0.532100
     26 C          136.6440   109.0200    93.8940 c          1 WS0       0.715000
     27 O          135.5990   109.1820    93.2810 o          1 WS0      -0.740500
     28 C21        135.8350   111.5120    95.6550 c6         1 WS0      -0.072400
     29 N3         135.2340   118.3960   105.8280 nb         1 WS0      -0.240000
     30 H1         138.5860   109.9160    94.1900 hc         1 WS0       0.017200
     31 H2         137.3610   111.0140    93.3920 hc         1 WS0       0.017200
     32 H3         133.9810   119.8100   106.6930 h5         1 WS0       0.044100
     33 H4         138.5290   115.1680   104.5440 hc         1 WS0       0.054033
     34 H5         137.1110   114.1590   104.2260 hc         1 WS0       0.054033
     35 H6         138.2590   114.5240   102.9240 hc         1 WS0       0.054033
     36 H7         138.6960   117.5300   103.4470 hc         1 WS0       0.054033
     37 H8         138.3120   116.8610   101.8550 hc         1 WS0       0.054033
     38 H9         137.3280   118.1700   102.5210 hc         1 WS0       0.054033
     39 H10        135.6850   117.0160   100.0110 ha         1 WS0       0.110500
     40 H11        136.0800   115.9060    97.8380 ha         1 WS0       0.119500
     41 H12        137.3640   110.1100    96.2940 hc         1 WS0       0.059700
     42 H13        134.5940   112.6190    97.0620 hc         1 WS0       0.029950
     43 H14        135.6130   111.3990    97.8160 hc         1 WS0       0.029950
     44 H15        139.3370   111.5570    95.8420 hc         1 WS0       0.039700
     45 H16        138.3170   112.7720    95.0800 hc         1 WS0       0.039700
     46 H17        138.2380   111.9060    98.0320 hc         1 WS0       0.029950
     47 H18        138.8370   113.4400    97.4130 hc         1 WS0       0.029950
     48 H19        136.5790   114.0260    96.5530 hc         1 WS0       0.048700
     49 H20        136.6740   112.1370    99.8740 ha         1 WS0       0.119500
     50 H21        136.2680   113.2420   102.0420 ha         1 WS0       0.110500
     51 H22        131.3960   118.6900   103.2370 hn         1 WS0       0.507500
     52 H23        132.3030   117.5660   102.2800 hn         1 WS0       0.507500
     53 H25        135.6800   112.2560    94.8610 hc         1 WS0       0.039700
     54 H26        135.0800   110.7310    95.5020 hc         1 WS0       0.039700
@<TRIPOS>BOND
     1     1    12 1   
     2     1    26 1   
     3     1    30 1   
     4     1    31 1   
     5     2     7 1   
     6     2    20 1   
     7     2    25 2   
     8     3     4 ar  
     9     3     6 ar  
    10     3    25 1   
    11     4    21 1   
    12     4    22 ar  
    13     5    22 ar  
    14     5    29 ar  
    15     5    32 1   
    16     6    24 1   
    17     6    29 ar  
    18     7     8 1   
    19     7     9 1   
    20     7    24 1   
    21     8    33 1   
    22     8    34 1   
    23     8    35 1   
    24     9    36 1   
    25     9    37 1   
    26     9    38 1   
    27    10    11 ar  
    28    10    20 ar  
    29    10    39 1   
    30    11    17 ar  
    31    11    40 1   
    32    12    14 1   
    33    12    28 1   
    34    12    41 1   
    35    13    16 1   
    36    13    28 1   
    37    13    42 1   
    38    13    43 1   
    39    14    15 1   
    40    14    44 1   
    41    14    45 1   
    42    15    16 1   
    43    15    46 1   
    44    15    47 1   
    45    16    17 1   
    46    16    48 1   
    47    17    18 ar  
    48    18    19 ar  
    49    18    49 1   
    50    19    20 ar  
    51    19    50 1   
    52    21    51 1   
    53    21    52 1   
    54    23    26 1   
    55    26    27 1   
    56    28    53 1   
    57    28    54 1   
@<TRIPOS>SUBSTRUCTURE
     1 WS0         1 TEMP              0 ****  ****    0 ROOT
