@<TRIPOS>MOLECULE
WS1
   66    69     1     0     0
SMALL
No Charge or Current Charge


@<TRIPOS>ATOM
      1 O4          -6.3640    -4.7800    -2.0120 o          1 WS1      -0.525000
      2 C4          -6.0260    -3.6360    -1.7710 c          1 WS1       0.590200
      3 N3          -6.3880    -2.5920    -2.5590 ns         1 WS1      -0.468500
      4 C2          -6.0820    -1.2760    -2.4040 c          1 WS1       0.612000
      5 O2          -6.4870    -0.4480    -3.2020 o          1 WS1      -0.553000
      6 C5          -5.2030    -3.2450    -0.6310 cc         1 WS1      -0.388200
      7 C6          -4.8480    -1.9360    -0.4030 cd         1 WS1       0.008600
      8 N1          -5.2930    -0.9490    -1.2840 n          1 WS1      -0.340000
      9 C1          -4.9430     0.4830    -1.0750 c5         1 WS1       0.343700
     10 O5          -3.6220     0.6080    -0.4940 os         1 WS1      -0.448000
     11 C8          -5.9640     1.0700    -0.0210 c5         1 WS1       0.105300
     12 O6          -6.4540     2.3730    -0.3670 oh         1 WS1      -0.698000
     13 C3          -5.0620     1.2200     1.2410 c5         1 WS1       0.093300
     14 O3          -5.5720     2.2470     2.1150 oh         1 WS1      -0.700000
     15 C7          -3.7070     1.5830     0.5650 c5         1 WS1       0.136300
     16 C9          -2.4610     1.4910     1.4810 c3         1 WS1       0.106000
     17 N11         -1.1810     1.7170     0.7970 ns         1 WS1      -0.483900
     18 C12         -0.7570     2.9240     0.2740 c          1 WS1       0.509600
     19 O13         -1.4320     3.9420     0.4010 o          1 WS1      -0.602100
     20 C14          0.5930     2.8870    -0.4540 ca         1 WS1       0.294500
     21 C15          1.1090     4.0700    -1.0290 ca         1 WS1      -0.104000
     22 C16          2.3440     4.0380    -1.6970 ca         1 WS1      -0.086000
     23 C17          3.0300     2.8160    -1.7690 ca         1 WS1      -0.123000
     24 C18          2.4670     1.6720    -1.1740 ca         1 WS1       0.346300
     25 N19          1.2720     1.7010    -0.5320 nb         1 WS1      -0.686000
     26 C20          3.1900     0.3240    -1.2420 c3         1 WS1       0.112300
     27 O21          4.5470     0.4580    -0.7580 os         1 WS1      -0.498000
     28 H1          -6.9560    -2.8190    -3.3590 hn         1 WS1       0.343500
     29 H2          -4.8880    -4.0530     0.0210 ha         1 WS1       0.223000
     30 H3          -4.2310    -1.5920     0.4240 h4         1 WS1       0.214000
     31 H4          -5.0040     1.0130    -2.0340 h2         1 WS1       0.128700
     32 H5          -6.8010     0.3830     0.1680 h1         1 WS1       0.074700
     33 H6          -6.3970     2.8540     0.5000 ho         1 WS1       0.526000
     34 H7          -4.9860     0.2610     1.7740 h1         1 WS1       0.049700
     35 H8          -5.2710     2.0390     3.0330 ho         1 WS1       0.518000
     36 H9          -3.7460     2.5880     0.1210 h1         1 WS1       0.100700
     37 H10         -2.5600     2.2280     2.2890 h1         1 WS1       0.064700
     38 H11         -2.4350     0.4950     1.9440 h1         1 WS1       0.064700
     39 H12         -0.5620     0.9290     0.6280 hn         1 WS1       0.350500
     40 H13          0.5540     5.0010    -0.9550 ha         1 WS1       0.150000
     41 H14          2.7580     4.9380    -2.1470 ha         1 WS1       0.124000
     42 H15          3.9890     2.7510    -2.2760 ha         1 WS1       0.135000
     43 H16          2.6380    -0.4130    -0.6440 h1         1 WS1       0.063200
     44 H17          3.1850    -0.0220    -2.2840 h1         1 WS1       0.063200
     45 C22          5.3590    -0.7330    -0.7830 c6         1 WS1       0.360300
     46 C23          6.8470    -0.4080    -0.3950 c6         1 WS1       0.117300
     47 C24          6.8880     0.0690     1.0940 c6         1 WS1       0.140300
     48 C25          6.2560    -1.0250     2.0230 c6         1 WS1       0.161300
     49 C26          4.7980    -1.2910     1.5260 c6         1 WS1       0.165300
     50 O27          4.8030    -1.7090     0.1300 os         1 WS1      -0.439000
     51 C28          4.0610    -2.3780     2.3760 c3         1 WS1       0.171600
     52 O29          2.6980    -2.6040     1.9580 oh         1 WS1      -0.723000
     53 O30          7.0520    -2.2290     1.9630 oh         1 WS1      -0.705000
     54 O31          8.2420     0.3730     1.4820 oh         1 WS1      -0.656000
     55 O32          7.7170    -1.5650    -0.5520 oh         1 WS1      -0.687000
     56 H18          5.3480    -1.1480    -1.8020 h2         1 WS1       0.070700
     57 H19          7.1980     0.4140    -1.0360 h1         1 WS1       0.041700
     58 H20          6.2760     0.9800     1.1810 h1         1 WS1       0.056700
     59 H21          6.2150    -0.6440     3.0540 h1         1 WS1       0.046700
     60 H22          4.2190    -0.3610     1.6180 h1         1 WS1       0.054700
     61 H23          4.6320    -3.3140     2.3110 h1         1 WS1       0.040700
     62 H24          4.0830    -2.0590     3.4270 h1         1 WS1       0.040700
     63 H25          2.3560    -3.3610     2.4890 ho         1 WS1       0.506000
     64 H26          7.3440    -2.2610     1.0090 ho         1 WS1       0.529000
     65 H27          8.7880    -0.3560     1.1100 ho         1 WS1       0.454000
     66 H28          7.9050    -1.6620    -1.5170 ho         1 WS1       0.505000
@<TRIPOS>BOND
     1     1     2 2   
     2     2     3 1   
     3     2     6 1   
     4     3     4 1   
     5     3    28 1   
     6     4     5 2   
     7     4     8 1   
     8     6     7 2   
     9     6    29 1   
    10     7     8 1   
    11     7    30 1   
    12     8     9 1   
    13     9    10 1   
    14     9    11 1   
    15     9    31 1   
    16    10    15 1   
    17    11    12 1   
    18    11    13 1   
    19    11    32 1   
    20    12    33 1   
    21    13    14 1   
    22    13    15 1   
    23    13    34 1   
    24    14    35 1   
    25    15    16 1   
    26    15    36 1   
    27    16    17 1   
    28    16    37 1   
    29    16    38 1   
    30    17    18 1   
    31    17    39 1   
    32    18    19 2   
    33    18    20 1   
    34    20    21 ar  
    35    20    25 ar  
    36    21    22 ar  
    37    21    40 1   
    38    22    23 ar  
    39    22    41 1   
    40    23    24 ar  
    41    23    42 1   
    42    24    25 ar  
    43    24    26 1   
    44    26    27 1   
    45    26    43 1   
    46    26    44 1   
    47    27    45 1   
    48    45    46 1   
    49    45    50 1   
    50    45    56 1   
    51    46    47 1   
    52    46    55 1   
    53    46    57 1   
    54    47    48 1   
    55    47    54 1   
    56    47    58 1   
    57    48    49 1   
    58    48    53 1   
    59    48    59 1   
    60    49    50 1   
    61    49    51 1   
    62    49    60 1   
    63    51    52 1   
    64    51    61 1   
    65    51    62 1   
    66    52    63 1   
    67    53    64 1   
    68    54    65 1   
    69    55    66 1   
@<TRIPOS>SUBSTRUCTURE
     1 WS1         1 TEMP              0 ****  ****    0 ROOT
