@<TRIPOS>MOLECULE
WS1
   66    69     1     0     0
SMALL
bcc


@<TRIPOS>ATOM
      1 O4          -4.9060    -4.8710     0.7400 o          1 WS1      -0.600500
      2 C4          -4.7720    -3.7380     0.3140 c          1 WS1       0.732700
      3 N3          -5.4720    -3.3200    -0.8090 ns         1 WS1      -0.602500
      4 C2          -5.4400    -2.0900    -1.4080 c          1 WS1       0.821500
      5 O2          -6.0980    -1.8260    -2.3940 o          1 WS1      -0.628500
      6 C5          -3.9210    -2.7160     0.8670 cc         1 WS1      -0.338200
      7 C6          -3.8740    -1.5020     0.2910 cd         1 WS1       0.058600
      8 N1          -4.6100    -1.1690    -0.8050 n          1 WS1      -0.407000
      9 C1          -4.5540     0.1700    -1.4340 c5         1 WS1       0.320500
     10 O5          -3.4490     0.8670    -0.9500 os         1 WS1      -0.401600
     11 C8          -5.7900     1.0050    -1.0930 c5         1 WS1       0.082100
     12 O6          -6.0080     1.8840    -2.1620 oh         1 WS1      -0.575800
     13 C3          -5.3060     1.7590     0.1500 c5         1 WS1       0.070100
     14 O3          -5.9680     2.9700     0.3760 oh         1 WS1      -0.577800
     15 C7          -3.8420     2.0100    -0.1900 c5         1 WS1       0.113100
     16 C9          -2.9540     2.1620     1.0300 c3         1 WS1       0.106000
     17 N11         -1.5590     2.3060     0.7050 ns         1 WS1      -0.550900
     18 C12         -0.9560     3.4870     0.5280 c          1 WS1       0.576600
     19 O13         -1.5130     4.5710     0.6320 o          1 WS1      -0.602100
     20 C14          0.5070     3.3890     0.2000 ca         1 WS1       0.359800
     21 C15          1.2640     4.5420     0.0630 ca         1 WS1      -0.187300
     22 C16          2.6120     4.3970    -0.2280 ca         1 WS1      -0.104000
     23 C17          3.1460     3.1280    -0.3740 ca         1 WS1      -0.206300
     24 C18          2.3030     2.0300    -0.2210 ca         1 WS1       0.411600
     25 N19          1.0170     2.1710     0.0650 nb         1 WS1      -0.686000
     26 C20          2.7720     0.6140    -0.4050 c3         1 WS1       0.089100
     27 O21          4.1680     0.5550    -0.2590 os         1 WS1      -0.451600
     28 H1          -6.0890    -3.9960    -1.2430 hn         1 WS1       0.343500
     29 H2          -3.3180    -2.9310     1.7350 ha         1 WS1       0.173000
     30 H3          -3.2240    -0.7360     0.6810 h4         1 WS1       0.164000
     31 H4          -4.4580     0.0120    -2.5090 h2         1 WS1       0.128700
     32 H5          -6.6700     0.3860    -0.8890 h1         1 WS1       0.074700
     33 H6          -6.4540     2.6670    -1.8170 ho         1 WS1       0.427000
     34 H7          -5.3740     1.0950     1.0230 h1         1 WS1       0.049700
     35 H8          -6.7750     2.7980     0.8710 ho         1 WS1       0.419000
     36 H9          -3.7530     2.9040    -0.8190 h1         1 WS1       0.100700
     37 H10         -3.2900     3.0350     1.5890 h1         1 WS1       0.064700
     38 H11         -3.0650     1.2990     1.6910 h1         1 WS1       0.064700
     39 H12         -0.9960     1.4800     0.5650 hn         1 WS1       0.350500
     40 H13          0.8170     5.5180     0.1850 ha         1 WS1       0.168000
     41 H14          3.2430     5.2690    -0.3420 ha         1 WS1       0.142000
     42 H15          4.1930     2.9960    -0.6030 ha         1 WS1       0.153000
     43 H16          2.2590    -0.0300     0.3170 h1         1 WS1       0.063200
     44 H17          2.4690     0.2740    -1.4060 h1         1 WS1       0.063200
     45 C22          4.7780    -0.5380    -0.8770 c6         1 WS1       0.313900
     46 C23          6.2930    -0.3660    -0.7130 c6         1 WS1       0.094100
     47 C24          6.6850    -0.6370     0.7410 c6         1 WS1       0.117100
     48 C25          6.1210    -1.9570     1.2610 c6         1 WS1       0.138100
     49 C26          4.6200    -1.9760     1.0020 c6         1 WS1       0.142100
     50 O27          4.3320    -1.7560    -0.3700 os         1 WS1      -0.392600
     51 C28          3.9700    -3.2800     1.4110 c3         1 WS1       0.148400
     52 O29          2.5720    -3.1220     1.3400 oh         1 WS1      -0.600800
     53 O30          6.7180    -3.0820     0.6700 oh         1 WS1      -0.582800
     54 O31          8.0780    -0.6760     0.9310 oh         1 WS1      -0.593800
     55 O32          6.9790    -1.2490    -1.5620 oh         1 WS1      -0.564800
     56 H18          4.5180    -0.5600    -1.9450 h2         1 WS1       0.070700
     57 H19          6.5420     0.6780    -0.9530 h1         1 WS1       0.041700
     58 H20          6.2280     0.1600     1.3450 h1         1 WS1       0.056700
     59 H21          6.2620    -1.9700     2.3540 h1         1 WS1       0.046700
     60 H22          4.1840    -1.1780     1.6200 h1         1 WS1       0.054700
     61 H23          4.3210    -4.0930     0.7640 h1         1 WS1       0.040700
     62 H24          4.2990    -3.5130     2.4320 h1         1 WS1       0.040700
     63 H25          2.1660    -3.9530     1.6000 ho         1 WS1       0.407000
     64 H26          7.6480    -2.8820     0.5200 ho         1 WS1       0.430000
     65 H27          8.4830     0.0770     0.4900 ho         1 WS1       0.415000
     66 H28          6.9670    -0.8810    -2.4510 ho         1 WS1       0.406000
@<TRIPOS>BOND
     1     1     2 2   
     2     2     3 1   
     3     2     6 1   
     4     3     4 1   
     5     3    28 1   
     6     4     5 2   
     7     4     8 1   
     8     6     7 2   
     9     6    29 1   
    10     7     8 1   
    11     7    30 1   
    12     8     9 1   
    13     9    10 1   
    14     9    11 1   
    15     9    31 1   
    16    10    15 1   
    17    11    12 1   
    18    11    13 1   
    19    11    32 1   
    20    12    33 1   
    21    13    14 1   
    22    13    15 1   
    23    13    34 1   
    24    14    35 1   
    25    15    16 1   
    26    15    36 1   
    27    16    17 1   
    28    16    37 1   
    29    16    38 1   
    30    17    18 1   
    31    17    39 1   
    32    18    19 2   
    33    18    20 1   
    34    20    21 ar  
    35    20    25 ar  
    36    21    22 ar  
    37    21    40 1   
    38    22    23 ar  
    39    22    41 1   
    40    23    24 ar  
    41    23    42 1   
    42    24    25 ar  
    43    24    26 1   
    44    26    27 1   
    45    26    43 1   
    46    26    44 1   
    47    27    45 1   
    48    45    46 1   
    49    45    50 1   
    50    45    56 1   
    51    46    47 1   
    52    46    55 1   
    53    46    57 1   
    54    47    48 1   
    55    47    54 1   
    56    47    58 1   
    57    48    49 1   
    58    48    53 1   
    59    48    59 1   
    60    49    50 1   
    61    49    51 1   
    62    49    60 1   
    63    51    52 1   
    64    51    61 1   
    65    51    62 1   
    66    52    63 1   
    67    53    64 1   
    68    54    65 1   
    69    55    66 1   
@<TRIPOS>SUBSTRUCTURE
     1 WS1         1 TEMP              0 ****  ****    0 ROOT
