@<TRIPOS>MOLECULE
WS2
   66    69     1     0     0
SMALL
No Charge or Current Charge


@<TRIPOS>ATOM
      1 O4          -4.6450    -3.9570     2.2030 o          1 WS2      -0.522000
      2 C4          -4.5660    -3.0500     1.3940 c          1 WS2       0.590200
      3 N3          -4.9480    -3.1980     0.1000 ns         1 WS2      -0.470500
      4 C2          -4.9130    -2.2740    -0.8980 c          1 WS2       0.628000
      5 O2          -5.2960    -2.5590    -2.0200 o          1 WS2      -0.546000
      6 C5          -4.0590    -1.7160     1.7030 cc         1 WS2      -0.374200
      7 C6          -3.9900    -0.7260     0.7500 cd         1 WS2      -0.000400
      8 N1          -4.4220    -1.0010    -0.5490 n          1 WS2      -0.317000
      9 C1          -4.3600     0.0430    -1.6060 c5         1 WS2       0.336700
     10 O5          -3.1660     0.8460    -1.4730 os         1 WS2      -0.458000
     11 C9          -5.5550     1.0310    -1.3780 c5         1 WS2       0.080300
     12 O8          -6.8210     0.5920    -1.9150 oh         1 WS2      -0.692000
     13 C3          -5.0070     2.2510    -2.1670 c5         1 WS2       0.115300
     14 O3          -5.1720     2.0370    -3.5750 oh         1 WS2      -0.702000
     15 C8          -3.5060     2.2410    -1.7120 c5         1 WS2       0.149300
     16 C10         -3.2410     3.0450    -0.4130 c3         1 WS2       0.089000
     17 N11         -1.9010     2.8300     0.1430 ns         1 WS2      -0.488900
     18 C12         -1.2550     3.6720     1.0250 c          1 WS2       0.506600
     19 O13         -1.7850     4.7080     1.4180 o          1 WS2      -0.607100
     20 C14          0.1420     3.2130     1.4630 ca         1 WS2       0.290500
     21 C15          0.8910     4.0060     2.3610 ca         1 WS2      -0.103000
     22 C16          2.1690     3.5860     2.7630 ca         1 WS2      -0.087000
     23 C17          2.6640     2.3770     2.2510 ca         1 WS2      -0.114000
     24 C18          1.8730     1.6310     1.3580 ca         1 WS2       0.351300
     25 N19          0.6360     2.0350     0.9710 nb         1 WS2      -0.690000
     26 C20          2.3850     0.3070     0.7890 c3         1 WS2       0.110300
     27 O1           3.5840     0.5300     0.0130 os         1 WS2      -0.457000
     28 H1          -5.3020    -4.1060    -0.1550 hn         1 WS2       0.343500
     29 H2          -3.7390    -1.5590     2.7260 ha         1 WS2       0.225000
     30 H3          -3.6160     0.2820     0.9200 h4         1 WS2       0.208000
     31 H4          -4.3990    -0.4240    -2.5990 h2         1 WS2       0.128700
     32 H5          -5.6590     1.2820    -0.3120 h1         1 WS2       0.053700
     33 H6          -7.1990    -0.0710    -1.2890 ho         1 WS2       0.518000
     34 H7          -5.5110     3.1800    -1.8630 h1         1 WS2       0.061700
     35 H8          -6.0260     1.5410    -3.6390 ho         1 WS2       0.526000
     36 H9          -2.8530     2.6390    -2.5010 h1         1 WS2       0.106700
     37 H10         -3.3720     4.1130    -0.6310 h1         1 WS2       0.053200
     38 H11         -3.9780     2.7650     0.3500 h1         1 WS2       0.053200
     39 H12         -1.3870     1.9940    -0.1240 hn         1 WS2       0.358500
     40 H13          0.4800     4.9380     2.7400 ha         1 WS2       0.149000
     41 H14          2.7610     4.1830     3.4540 ha         1 WS2       0.126000
     42 H15          3.6490     2.0170     2.5360 ha         1 WS2       0.144000
     43 H16          2.5840    -0.3750     1.6250 h1         1 WS2       0.061700
     44 H17          1.6040    -0.1500     0.1660 h1         1 WS2       0.061700
     45 C11          4.1800    -0.6370    -0.5810 c6         1 WS2       0.367300
     46 C22          5.3700    -0.2030    -1.5060 c6         1 WS2       0.121300
     47 C33          6.0830    -1.4840    -2.0460 c6         1 WS2       0.138300
     48 C44          6.5460    -2.3830    -0.8490 c6         1 WS2       0.158300
     49 C55          5.2810    -2.7110     0.0120 c6         1 WS2       0.179300
     50 O66          4.6680    -1.4800     0.4830 os         1 WS2      -0.449000
     51 H18          3.4260    -1.1780    -1.1720 h2         1 WS2       0.023700
     52 H19          4.9500     0.3470    -2.3610 h1         1 WS2       0.034700
     53 H21          5.3550    -2.0580    -2.6380 h1         1 WS2       0.037700
     54 H23          6.9630    -3.3230    -1.2410 h1         1 WS2       0.045700
     55 H25          4.5530    -3.2490    -0.6130 h1         1 WS2       0.041700
     56 C77          5.6060    -3.6190     1.2450 c3         1 WS2       0.172600
     57 O70          4.4400    -3.9610     2.0240 oh         1 WS2      -0.720000
     58 H26          6.0910    -4.5320     0.8740 h1         1 WS2       0.041200
     59 H27          6.3380    -3.0960     1.8760 h1         1 WS2       0.041200
     60 H28          4.7580    -4.4590     2.8140 ho         1 WS2       0.508000
     61 O71          7.5370    -1.6780    -0.0700 oh         1 WS2      -0.702000
     62 O72          7.1880    -1.1140    -2.8920 oh         1 WS2      -0.651000
     63 O73          6.3210     0.6370    -0.7990 oh         1 WS2      -0.688000
     64 H20          7.2290    -0.7310    -0.1070 ho         1 WS2       0.531000
     65 H22          7.5850    -0.3210    -2.4650 ho         1 WS2       0.457000
     66 H24          5.7780     1.3380    -0.3600 ho         1 WS2       0.517000
@<TRIPOS>BOND
     1     1     2 2   
     2     2     3 1   
     3     2     6 1   
     4     3     4 1   
     5     3    28 1   
     6     4     5 2   
     7     4     8 1   
     8     6     7 2   
     9     6    29 1   
    10     7     8 1   
    11     7    30 1   
    12     8     9 1   
    13     9    10 1   
    14     9    11 1   
    15     9    31 1   
    16    10    15 1   
    17    11    12 1   
    18    11    13 1   
    19    11    32 1   
    20    12    33 1   
    21    13    14 1   
    22    13    15 1   
    23    13    34 1   
    24    14    35 1   
    25    15    16 1   
    26    15    36 1   
    27    16    17 1   
    28    16    37 1   
    29    16    38 1   
    30    17    18 1   
    31    17    39 1   
    32    18    19 2   
    33    18    20 1   
    34    20    21 ar  
    35    20    25 ar  
    36    21    22 ar  
    37    21    40 1   
    38    22    23 ar  
    39    22    41 1   
    40    23    24 ar  
    41    23    42 1   
    42    24    25 ar  
    43    24    26 1   
    44    26    27 1   
    45    26    43 1   
    46    26    44 1   
    47    27    45 1   
    48    45    46 1   
    49    45    50 1   
    50    45    51 1   
    51    46    47 1   
    52    46    52 1   
    53    46    63 1   
    54    47    48 1   
    55    47    53 1   
    56    47    62 1   
    57    48    49 1   
    58    48    54 1   
    59    48    61 1   
    60    49    50 1   
    61    49    55 1   
    62    49    56 1   
    63    56    57 1   
    64    56    58 1   
    65    56    59 1   
    66    57    60 1   
    67    61    64 1   
    68    62    65 1   
    69    63    66 1   
@<TRIPOS>SUBSTRUCTURE
     1 WS2         1 TEMP              0 ****  ****    0 ROOT
