@<TRIPOS>MOLECULE
WS2
   66    69     1     0     0
SMALL
abcg2


@<TRIPOS>ATOM
      1 O4          -2.6560    -3.9840     1.9080 o          1 WS2      -0.522000
      2 C4          -2.9890    -3.0530     1.2010 c          1 WS2       0.590200
      3 N3          -3.4420    -3.2730    -0.0910 ns         1 WS2      -0.470500
      4 C2          -3.8530    -2.3480    -1.0140 c          1 WS2       0.628000
      5 O2          -4.2270    -2.6680    -2.1220 o          1 WS2      -0.546000
      6 C5          -2.9680    -1.6580     1.5700 cc         1 WS2      -0.374200
      7 C6          -3.3700    -0.7350     0.6850 cd         1 WS2      -0.000400
      8 N1          -3.8090    -1.0380    -0.5740 n          1 WS2      -0.317000
      9 C1          -4.2110     0.0290    -1.4760 c5         1 WS2       0.336700
     10 O5          -3.2000     0.9980    -1.5230 os         1 WS2      -0.458000
     11 C9          -5.4760     0.7690    -1.0430 c5         1 WS2       0.080300
     12 O8          -6.6030     0.0770    -1.4890 oh         1 WS2      -0.692000
     13 C3          -5.2560     2.1370    -1.7000 c5         1 WS2       0.115300
     14 O3          -5.5210     2.0790    -3.0760 oh         1 WS2      -0.702000
     15 C8          -3.7580     2.3190    -1.4970 c5         1 WS2       0.149300
     16 C10         -3.4410     3.0100    -0.1800 c3         1 WS2       0.089000
     17 N11         -2.0370     2.9020     0.1220 ns         1 WS2      -0.488900
     18 C12         -1.4260     3.6710     1.0280 c          1 WS2       0.506600
     19 O13         -1.9680     4.5840     1.6350 o          1 WS2      -0.607100
     20 C14          0.0190     3.3260     1.2560 ca         1 WS2       0.290500
     21 C15          0.7840     4.0790     2.1330 ca         1 WS2      -0.103000
     22 C16          2.1090     3.7120     2.3090 ca         1 WS2      -0.087000
     23 C17          2.6140     2.6240     1.6160 ca         1 WS2      -0.114000
     24 C18          1.7660     1.9320     0.7550 ca         1 WS2       0.351300
     25 N19          0.5010     2.2860     0.5870 nb         1 WS2      -0.690000
     26 C20          2.1990     0.7160    -0.0120 c3         1 WS2       0.110300
     27 O1           3.6020     0.7130    -0.1360 os         1 WS2      -0.457000
     28 H1          -3.4790    -4.2350    -0.4030 hn         1 WS2       0.343500
     29 H2          -2.6260    -1.3670     2.5510 ha         1 WS2       0.225000
     30 H3          -3.3520     0.3140     0.9440 h4         1 WS2       0.208000
     31 H4          -4.3610    -0.4290    -2.4550 h2         1 WS2       0.128700
     32 H5          -5.4880     0.8900     0.0480 h1         1 WS2       0.053700
     33 H6          -7.3670     0.3630    -0.9770 ho         1 WS2       0.518000
     34 H7          -5.8330     2.9280    -1.2040 h1         1 WS2       0.061700
     35 H8          -6.3580     1.6160    -3.1980 ho         1 WS2       0.526000
     36 H9          -3.3110     2.8870    -2.3170 h1         1 WS2       0.106700
     37 H10         -3.7220     4.0610    -0.2730 h1         1 WS2       0.053200
     38 H11         -4.0450     2.5970     0.6370 h1         1 WS2       0.053200
     39 H12         -1.4940     2.1430    -0.2670 hn         1 WS2       0.358500
     40 H13          0.3590     4.9220     2.6580 ha         1 WS2       0.149000
     41 H14          2.7450     4.2680     2.9850 ha         1 WS2       0.126000
     42 H15          3.6430     2.3200     1.7460 ha         1 WS2       0.144000
     43 H16          1.8410    -0.1760     0.5140 h1         1 WS2       0.061700
     44 H17          1.7180     0.7240    -0.9970 h1         1 WS2       0.061700
     45 C11          4.1440    -0.4600    -0.6250 c6         1 WS2       0.367300
     46 C22          5.5780    -0.1770    -1.0730 c6         1 WS2       0.121300
     47 C33          6.1980    -1.5070    -1.5040 c6         1 WS2       0.138300
     48 C44          6.0520    -2.5980    -0.4440 c6         1 WS2       0.158300
     49 C55          4.5880    -2.6760    -0.0210 c6         1 WS2       0.179300
     50 O66          4.1150    -1.4140     0.3990 os         1 WS2      -0.449000
     51 H18          3.5690    -0.8280    -1.4950 h2         1 WS2       0.023700
     52 H19          5.5260     0.4760    -1.9590 h1         1 WS2       0.034700
     53 H21          5.6230    -1.8410    -2.3810 h1         1 WS2       0.037700
     54 H23          6.3060    -3.5590    -0.9210 h1         1 WS2       0.045700
     55 H25          4.0200    -3.0170    -0.9030 h1         1 WS2       0.041700
     56 C77          4.3610    -3.6720     1.0950 c3         1 WS2       0.172600
     57 O70          2.9740    -3.8380     1.2730 oh         1 WS2      -0.720000
     58 H26          4.8480    -4.6140     0.8080 h1         1 WS2       0.041200
     59 H27          4.8490    -3.3220     2.0110 h1         1 WS2       0.041200
     60 H28          2.8400    -4.4470     2.0050 ho         1 WS2       0.508000
     61 O71          6.8550    -2.3750     0.6850 oh         1 WS2      -0.702000
     62 O72          7.5660    -1.4010    -1.8080 oh         1 WS2      -0.651000
     63 O73          6.3460     0.4090    -0.0590 oh         1 WS2      -0.688000
     64 H20          7.6780    -1.9690     0.3900 ho         1 WS2       0.531000
     65 H22          7.7070    -0.6480    -2.3910 ho         1 WS2       0.457000
     66 H24          6.0190     1.3030     0.0860 ho         1 WS2       0.517000
@<TRIPOS>BOND
     1     1     2 2   
     2     2     3 1   
     3     2     6 1   
     4     3     4 1   
     5     3    28 1   
     6     4     5 2   
     7     4     8 1   
     8     6     7 2   
     9     6    29 1   
    10     7     8 1   
    11     7    30 1   
    12     8     9 1   
    13     9    10 1   
    14     9    11 1   
    15     9    31 1   
    16    10    15 1   
    17    11    12 1   
    18    11    13 1   
    19    11    32 1   
    20    12    33 1   
    21    13    14 1   
    22    13    15 1   
    23    13    34 1   
    24    14    35 1   
    25    15    16 1   
    26    15    36 1   
    27    16    17 1   
    28    16    37 1   
    29    16    38 1   
    30    17    18 1   
    31    17    39 1   
    32    18    19 2   
    33    18    20 1   
    34    20    21 ar  
    35    20    25 ar  
    36    21    22 ar  
    37    21    40 1   
    38    22    23 ar  
    39    22    41 1   
    40    23    24 ar  
    41    23    42 1   
    42    24    25 ar  
    43    24    26 1   
    44    26    27 1   
    45    26    43 1   
    46    26    44 1   
    47    27    45 1   
    48    45    46 1   
    49    45    50 1   
    50    45    51 1   
    51    46    47 1   
    52    46    52 1   
    53    46    63 1   
    54    47    48 1   
    55    47    53 1   
    56    47    62 1   
    57    48    49 1   
    58    48    54 1   
    59    48    61 1   
    60    49    50 1   
    61    49    55 1   
    62    49    56 1   
    63    56    57 1   
    64    56    58 1   
    65    56    59 1   
    66    57    60 1   
    67    61    64 1   
    68    62    65 1   
    69    63    66 1   
@<TRIPOS>SUBSTRUCTURE
     1 WS2         1 TEMP              0 ****  ****    0 ROOT
