@<TRIPOS>MOLECULE
WS3
   66    69     1     0     0
SMALL
abcg2


@<TRIPOS>ATOM
      1 O4          -5.6100     4.6120    -0.1580 o          1 WS3      -0.525000
      2 C4          -5.2210     3.5160     0.2020 c          1 WS3       0.590200
      3 N3          -5.4760     3.0650     1.4890 ns         1 WS3      -0.468500
      4 C2          -5.1160     1.8680     2.0450 c          1 WS3       0.612000
      5 O2          -5.3880     1.5710     3.1900 o          1 WS3      -0.552000
      6 C5          -4.4770     2.5740    -0.5940 cc         1 WS3      -0.389200
      7 C6          -4.1140     1.3930    -0.0660 cd         1 WS3       0.009600
      8 N1          -4.4230     1.0190     1.2070 n          1 WS3      -0.341000
      9 C11         -4.0190    -0.2820     1.7860 c5         1 WS3       0.342700
     10 O44         -3.0580    -0.8800     0.9740 os         1 WS3      -0.448000
     11 C22         -5.1990    -1.2520     1.8670 c5         1 WS3       0.105300
     12 O22         -4.9670    -2.1100     2.9500 oh         1 WS3      -0.698000
     13 C33         -5.0630    -1.9980     0.5340 c5         1 WS3       0.092300
     14 O33         -5.6170    -3.2830     0.5410 oh         1 WS3      -0.700000
     15 C44         -3.5500    -2.0810     0.3770 c5         1 WS3       0.137300
     16 C55         -3.0910    -2.1740    -1.0660 c3         1 WS3       0.105000
     17 N11         -1.6590    -2.2040    -1.2010 ns         1 WS3      -0.485900
     18 C12         -0.9490    -3.3240    -1.3820 c          1 WS3       0.510600
     19 O13         -1.4310    -4.4450    -1.4700 o          1 WS3      -0.604100
     20 C14          0.5340    -3.1030    -1.4880 ca         1 WS3       0.291500
     21 C15          1.3740    -4.1710    -1.7650 ca         1 WS3      -0.105000
     22 C16          2.7330    -3.9150    -1.8600 ca         1 WS3      -0.088000
     23 C17          3.1990    -2.6250    -1.6690 ca         1 WS3      -0.118000
     24 C18          2.2770    -1.6210    -1.3840 ca         1 WS3       0.344300
     25 N19          0.9770    -1.8670    -1.3020 nb         1 WS3      -0.688000
     26 C20          2.6840    -0.1900    -1.1700 c3         1 WS3       0.111300
     27 O1           4.0680    -0.1390    -0.9580 os         1 WS3      -0.479000
     28 C1           4.6670     1.1000    -1.1560 c6         1 WS3       0.364300
     29 O5           4.2700     2.0440    -0.2060 os         1 WS3      -0.451000
     30 C9           4.6170     1.7210     1.1330 c6         1 WS3       0.168300
     31 C10          4.0560     2.8040     2.0300 c3         1 WS3       0.171600
     32 O6           2.6500     2.7350     1.9870 oh         1 WS3      -0.718000
     33 C7           6.1220     1.5550     1.2930 c6         1 WS3       0.147300
     34 O7           6.7450     2.8010     1.0950 oh         1 WS3      -0.717000
     35 C3           6.6200     0.5130     0.2940 c6         1 WS3       0.139300
     36 O3           8.0230     0.4480     0.4090 oh         1 WS3      -0.672000
     37 C8           6.1840     0.8980    -1.1140 c6         1 WS3       0.114300
     38 O8           6.6150    -0.1090    -1.9950 oh         1 WS3      -0.714000
     39 H1          -5.9950     3.6860     2.0980 hn         1 WS3       0.343500
     40 H2          -4.2070     2.8240    -1.6080 ha         1 WS3       0.223000
     41 H3          -3.5370     0.6880    -0.6440 h4         1 WS3       0.214000
     42 H4          -3.5990    -0.0750     2.7720 h2         1 WS3       0.128700
     43 H5          -6.1600    -0.7340     1.9540 h1         1 WS3       0.074700
     44 H6          -5.3710    -2.9620     2.7430 ho         1 WS3       0.526000
     45 H7          -5.4890    -1.3820    -0.2690 h1         1 WS3       0.051700
     46 H8          -6.5590    -3.2170     0.3540 ho         1 WS3       0.518000
     47 H9          -3.1630    -2.9420     0.9340 h1         1 WS3       0.098700
     48 H10         -3.5110    -3.0800    -1.5020 h1         1 WS3       0.064700
     49 H11         -3.4820    -1.3320    -1.6420 h1         1 WS3       0.064700
     50 H12         -1.1380    -1.3430    -1.1230 hn         1 WS3       0.349500
     51 H13          0.9780    -5.1670    -1.9050 ha         1 WS3       0.149000
     52 H14          3.4250    -4.7160    -2.0800 ha         1 WS3       0.125000
     53 H15          4.2540    -2.4000    -1.7400 ha         1 WS3       0.147000
     54 H16          2.3970     0.3980    -2.0540 h1         1 WS3       0.057700
     55 H17          2.1200     0.2180    -0.3230 h1         1 WS3       0.057700
     56 H18          4.3640     1.5200    -2.1250 h2         1 WS3       0.067700
     57 H19          4.1560     0.7690     1.4280 h1         1 WS3       0.065700
     58 H20          4.4390     2.6310     3.0450 h1         1 WS3       0.038200
     59 H21          4.4240     3.7840     1.7080 h1         1 WS3       0.038200
     60 H22          2.3010     3.4790     2.4860 ho         1 WS3       0.507000
     61 H23          6.3080     1.1790     2.3100 h1         1 WS3       0.054700
     62 H24          7.6970     2.6520     1.0600 ho         1 WS3       0.522000
     63 H25          6.1660    -0.4530     0.5570 h1         1 WS3       0.069700
     64 H26          8.3670    -0.0430    -0.3450 ho         1 WS3       0.468000
     65 H27          6.6410     1.8630    -1.3670 h1         1 WS3       0.066700
     66 H28          6.6570     0.2520    -2.8850 ho         1 WS3       0.511000
@<TRIPOS>BOND
     1     1     2 2   
     2     2     3 1   
     3     2     6 1   
     4     3     4 1   
     5     3    39 1   
     6     4     5 2   
     7     4     8 1   
     8     6     7 2   
     9     6    40 1   
    10     7     8 1   
    11     7    41 1   
    12     8     9 1   
    13     9    10 1   
    14     9    11 1   
    15     9    42 1   
    16    10    15 1   
    17    11    12 1   
    18    11    13 1   
    19    11    43 1   
    20    12    44 1   
    21    13    14 1   
    22    13    15 1   
    23    13    45 1   
    24    14    46 1   
    25    15    16 1   
    26    15    47 1   
    27    16    17 1   
    28    16    48 1   
    29    16    49 1   
    30    17    18 1   
    31    17    50 1   
    32    18    19 2   
    33    18    20 1   
    34    20    21 ar  
    35    20    25 ar  
    36    21    22 ar  
    37    21    51 1   
    38    22    23 ar  
    39    22    52 1   
    40    23    24 ar  
    41    23    53 1   
    42    24    25 ar  
    43    24    26 1   
    44    26    27 1   
    45    26    54 1   
    46    26    55 1   
    47    27    28 1   
    48    28    29 1   
    49    28    37 1   
    50    28    56 1   
    51    29    30 1   
    52    30    31 1   
    53    30    33 1   
    54    30    57 1   
    55    31    32 1   
    56    31    58 1   
    57    31    59 1   
    58    32    60 1   
    59    33    34 1   
    60    33    35 1   
    61    33    61 1   
    62    34    62 1   
    63    35    36 1   
    64    35    37 1   
    65    35    63 1   
    66    36    64 1   
    67    37    38 1   
    68    37    65 1   
    69    38    66 1   
@<TRIPOS>SUBSTRUCTURE
     1 WS3         1 TEMP              0 ****  ****    0 ROOT
