@<TRIPOS>MOLECULE
WS3
   66    69     1     0     0
SMALL
No Charge or Current Charge


@<TRIPOS>ATOM
      1 O4          -1.1360     4.4730     3.6950 o          1 WS3      -0.525000
      2 C4          -1.4150     3.3740     3.2480 c          1 WS3       0.590200
      3 N3          -1.5410     2.2800     4.0410 ns         1 WS3      -0.468500
      4 C2          -1.8480     1.0050     3.6730 c          1 WS3       0.612000
      5 O2          -1.9260     0.1210     4.5100 o          1 WS3      -0.552000
      6 C5          -1.6460     3.0970     1.8330 cc         1 WS3      -0.389200
      7 C6          -1.9640     1.8370     1.3790 cd         1 WS3       0.009600
      8 N1          -2.0670     0.7900     2.2980 n          1 WS3      -0.341000
      9 C11         -2.3930    -0.5920     1.8530 c5         1 WS3       0.342700
     10 O44         -1.8080    -0.8580     0.5570 os         1 WS3      -0.448000
     11 C22         -3.9620    -0.6890     1.6730 c5         1 WS3       0.105300
     12 O22         -4.5280    -1.8770     2.2450 oh         1 WS3      -0.698000
     13 C33         -4.1020    -0.8010     0.1230 c5         1 WS3       0.092300
     14 O33         -5.3070    -1.5080    -0.2350 oh         1 WS3      -0.700000
     15 C44         -2.7910    -1.5730    -0.2170 c5         1 WS3       0.137300
     16 C55         -2.3880    -1.5790    -1.7110 c3         1 WS3       0.105000
     17 N11         -1.0160    -2.0380    -1.9510 ns         1 WS3      -0.485900
     18 C12         -0.5860    -3.3490    -1.8910 c          1 WS3       0.510600
     19 O13         -1.3800    -4.2780    -1.7750 o          1 WS3      -0.604100
     20 C14          0.9350    -3.5260    -1.9660 ca         1 WS3       0.291500
     21 C15          1.5020    -4.8200    -1.9810 ca         1 WS3      -0.105000
     22 C16          2.8990    -4.9660    -2.0250 ca         1 WS3      -0.088000
     23 C17          3.6920    -3.8060    -2.0430 ca         1 WS3      -0.118000
     24 C18          3.0670    -2.5450    -2.0230 ca         1 WS3       0.344300
     25 N19          1.7180    -2.4070    -1.9940 nb         1 WS3      -0.688000
     26 C20          3.8830    -1.2500    -2.0310 c3         1 WS3       0.111300
     27 O1           3.8900    -0.6590    -0.7070 os         1 WS3      -0.479000
     28 C1           4.3260     0.7140    -0.6170 c6         1 WS3       0.364300
     29 O5           3.3930     1.5730    -1.3140 os         1 WS3      -0.451000
     30 C9           2.0570     1.6190    -0.7340 c6         1 WS3       0.168300
     31 C10          1.1280     2.4740    -1.6600 c3         1 WS3       0.171600
     32 O6           1.0180     1.9530    -3.0030 oh         1 WS3      -0.718000
     33 C7           2.1050     2.1690     0.7300 c6         1 WS3       0.147300
     34 O7           2.5580     3.5390     0.8020 oh         1 WS3      -0.717000
     35 C3           3.0670     1.2710     1.5630 c6         1 WS3       0.139300
     36 O3           3.2160     1.7980     2.8990 oh         1 WS3      -0.672000
     37 C8           4.4710     1.1500     0.8830 c6         1 WS3       0.114300
     38 O8           5.3010     0.2270     1.6330 oh         1 WS3      -0.714000
     39 H1          -1.3890     2.4280     5.0250 hn         1 WS3       0.343500
     40 H2          -1.5530     3.9480     1.1670 ha         1 WS3       0.223000
     41 H3          -2.1450     1.5740     0.3380 h4         1 WS3       0.214000
     42 H4          -2.0300    -1.3100     2.6010 h2         1 WS3       0.128700
     43 H5          -4.4760     0.2070     2.0530 h1         1 WS3       0.074700
     44 H6          -5.1410    -2.1820     1.5240 ho         1 WS3       0.526000
     45 H7          -4.0900     0.2010    -0.3330 h1         1 WS3       0.051700
     46 H8          -5.5770    -1.2080    -1.1370 ho         1 WS3       0.518000
     47 H9          -2.8350    -2.6130     0.1390 h1         1 WS3       0.098700
     48 H10         -3.0840    -2.2200    -2.2690 h1         1 WS3       0.064700
     49 H11         -2.4830    -0.5590    -2.1080 h1         1 WS3       0.064700
     50 H12         -0.2730    -1.3480    -2.0220 hn         1 WS3       0.349500
     51 H13          0.8600    -5.6970    -1.9580 ha         1 WS3       0.149000
     52 H14          3.3550    -5.9540    -2.0400 ha         1 WS3       0.125000
     53 H15          4.7760    -3.8800    -2.0680 ha         1 WS3       0.147000
     54 H16          4.9090    -1.4610    -2.3680 h1         1 WS3       0.057700
     55 H17          3.4290    -0.5680    -2.7640 h1         1 WS3       0.057700
     56 H18          5.3150     0.8010    -1.0960 h2         1 WS3       0.067700
     57 H19          1.6440     0.5990    -0.7150 h1         1 WS3       0.065700
     58 H20          0.1330     2.5240    -1.1940 h1         1 WS3       0.038200
     59 H21          1.5240     3.4990    -1.6870 h1         1 WS3       0.038200
     60 H22          0.5290     2.6250    -3.5340 ho         1 WS3       0.507000
     61 H23          1.0950     2.0880     1.1630 h1         1 WS3       0.054700
     62 H24          2.8800     3.6380     1.7310 ho         1 WS3       0.522000
     63 H25          2.6240     0.2640     1.6070 h1         1 WS3       0.069700
     64 H26          4.0150     1.3470     3.2640 ho         1 WS3       0.468000
     65 H27          4.9400     2.1460     0.8850 h1         1 WS3       0.066700
     66 H28          5.0970    -0.6710     1.2730 ho         1 WS3       0.511000
@<TRIPOS>BOND
     1     1     2 2   
     2     2     3 1   
     3     2     6 1   
     4     3     4 1   
     5     3    39 1   
     6     4     5 2   
     7     4     8 1   
     8     6     7 2   
     9     6    40 1   
    10     7     8 1   
    11     7    41 1   
    12     8     9 1   
    13     9    10 1   
    14     9    11 1   
    15     9    42 1   
    16    10    15 1   
    17    11    12 1   
    18    11    13 1   
    19    11    43 1   
    20    12    44 1   
    21    13    14 1   
    22    13    15 1   
    23    13    45 1   
    24    14    46 1   
    25    15    16 1   
    26    15    47 1   
    27    16    17 1   
    28    16    48 1   
    29    16    49 1   
    30    17    18 1   
    31    17    50 1   
    32    18    19 2   
    33    18    20 1   
    34    20    21 ar  
    35    20    25 ar  
    36    21    22 ar  
    37    21    51 1   
    38    22    23 ar  
    39    22    52 1   
    40    23    24 ar  
    41    23    53 1   
    42    24    25 ar  
    43    24    26 1   
    44    26    27 1   
    45    26    54 1   
    46    26    55 1   
    47    27    28 1   
    48    28    29 1   
    49    28    37 1   
    50    28    56 1   
    51    29    30 1   
    52    30    31 1   
    53    30    33 1   
    54    30    57 1   
    55    31    32 1   
    56    31    58 1   
    57    31    59 1   
    58    32    60 1   
    59    33    34 1   
    60    33    35 1   
    61    33    61 1   
    62    34    62 1   
    63    35    36 1   
    64    35    37 1   
    65    35    63 1   
    66    36    64 1   
    67    37    38 1   
    68    37    65 1   
    69    38    66 1   
@<TRIPOS>SUBSTRUCTURE
     1 WS3         1 TEMP              0 ****  ****    0 ROOT
