@<TRIPOS>MOLECULE
WS4
   27    28     1     0     0
SMALL
No Charge or Current Charge


@<TRIPOS>ATOM
      1 N1          -0.6230    10.7960    -8.1150 nc         1 WS4      -0.522800
      2 C4           3.1260    10.0270   -12.2080 ca         1 WS4      -0.059000
      3 C5           3.9390     8.9280   -12.5710 ca         1 WS4      -0.101000
      4 C6           4.8080     9.0210   -13.6740 ca         1 WS4      -0.153000
      5 C7           3.2030    11.2110   -12.9670 ca         1 WS4      -0.101000
      6 C8           4.0730    11.3010   -14.0680 ca         1 WS4      -0.153000
      7 C10          0.3990     8.7130    -8.1720 cc         1 WS4      -0.094000
      8 O1           2.3970     7.9110   -10.1310 o          1 WS4      -0.601100
      9 C3           1.9040     9.0330   -10.1700 c          1 WS4       0.661700
     10 C2           0.8860     9.4840    -9.1950 cd         1 WS4      -0.291600
     11 C1           0.2350    10.7320    -9.1150 cd         1 WS4       0.267900
     12 N           -0.5160     9.5470    -7.5370 na         1 WS4       0.134800
     13 C           -1.3310     9.2100    -6.3620 c3         1 WS4       0.064900
     14 N2           2.2230    10.0090   -11.1070 ns         1 WS4      -0.142000
     15 C9           4.8750    10.2070   -14.4220 ca         1 WS4       0.117100
     16 O            5.7150    10.3030   -15.4910 oh         1 WS4      -0.535100
     17 H1           3.9130     7.9960   -12.0160 ha         1 WS4       0.126500
     18 H2           5.4260     8.1670   -13.9400 ha         1 WS4       0.121000
     19 H3           2.5860    12.0690   -12.7050 ha         1 WS4       0.126500
     20 H4           4.1230    12.2200   -14.6470 ha         1 WS4       0.121000
     21 H5           0.6120     7.6990    -7.8550 h4         1 WS4       0.173000
     22 H6           0.3600    11.5970    -9.7550 h4         1 WS4       0.037100
     23 H7          -1.0950     9.8980    -5.5430 h1         1 WS4       0.062367
     24 H8          -2.3940     9.2970    -6.6170 h1         1 WS4       0.062367
     25 H9          -1.1190     8.1820    -6.0450 h1         1 WS4       0.062367
     26 H10          1.7160    10.8750   -10.9840 hn         1 WS4       0.151000
     27 H11          6.1930     9.4520   -15.5900 ho         1 WS4       0.464000
@<TRIPOS>BOND
     1     1    11 2   
     2     1    12 1   
     3     2     3 ar  
     4     2     5 ar  
     5     2    14 1   
     6     3     4 ar  
     7     3    17 1   
     8     4    15 ar  
     9     4    18 1   
    10     5     6 ar  
    11     5    19 1   
    12     6    15 ar  
    13     6    20 1   
    14     7    10 2   
    15     7    12 1   
    16     7    21 1   
    17     8     9 2   
    18     9    10 1   
    19     9    14 1   
    20    10    11 1   
    21    11    22 1   
    22    12    13 1   
    23    13    23 1   
    24    13    24 1   
    25    13    25 1   
    26    14    26 1   
    27    15    16 1   
    28    16    27 1   
@<TRIPOS>SUBSTRUCTURE
     1 WS4         1 TEMP              0 ****  ****    0 ROOT
