@<TRIPOS>MOLECULE
WS4
   27    28     1     0     0
SMALL
abcg2


@<TRIPOS>ATOM
      1 N1          -0.3290    10.8100    -7.7530 nc         1 WS4      -0.522800
      2 C4           3.1450    10.1090   -12.1770 ca         1 WS4      -0.059000
      3 C5           4.0110     9.0410   -12.3960 ca         1 WS4      -0.101000
      4 C6           4.8330     9.0240   -13.5130 ca         1 WS4      -0.153000
      5 C7           3.1360    11.1570   -13.0970 ca         1 WS4      -0.101000
      6 C8           3.9650    11.1480   -14.2040 ca         1 WS4      -0.153000
      7 C10          0.2340     8.7570    -8.3810 cc         1 WS4      -0.094000
      8 O1           1.9750     8.0220   -10.5530 o          1 WS4      -0.601100
      9 C3           1.7600     9.2050   -10.3330 c          1 WS4       0.661700
     10 C2           0.8780     9.6290    -9.2380 cd         1 WS4      -0.291600
     11 C1           0.4800    10.9030    -8.7860 cd         1 WS4       0.267900
     12 N           -0.4650     9.5030    -7.5230 na         1 WS4       0.134800
     13 C           -1.3000     9.0320    -6.4390 c3         1 WS4       0.064900
     14 N2           2.3050    10.2150   -11.0560 ns         1 WS4      -0.142000
     15 C9           4.8210    10.0730   -14.4260 ca         1 WS4       0.117100
     16 O            5.6070    10.1020   -15.5230 oh         1 WS4      -0.535100
     17 H1           4.0660     8.2170   -11.7020 ha         1 WS4       0.126500
     18 H2           5.4980     8.1810   -13.6620 ha         1 WS4       0.121000
     19 H3           2.4710    11.9990   -12.9450 ha         1 WS4       0.126500
     20 H4           3.9430    11.9760   -14.9020 ha         1 WS4       0.121000
     21 H5           0.2370     7.6800    -8.3350 h4         1 WS4       0.173000
     22 H6           0.7480    11.8790    -9.1660 h4         1 WS4       0.037100
     23 H7          -1.7220     9.8950    -5.9360 h1         1 WS4       0.062367
     24 H8          -2.1070     8.4110    -6.8230 h1         1 WS4       0.062367
     25 H9          -0.7120     8.4560    -5.7290 h1         1 WS4       0.062367
     26 H10          2.0040    11.1520   -10.8410 hn         1 WS4       0.151000
     27 H11          6.1540     9.3100   -15.5630 ho         1 WS4       0.464000
@<TRIPOS>BOND
     1     1    11 2   
     2     1    12 1   
     3     2     3 ar  
     4     2     5 ar  
     5     2    14 1   
     6     3     4 ar  
     7     3    17 1   
     8     4    15 ar  
     9     4    18 1   
    10     5     6 ar  
    11     5    19 1   
    12     6    15 ar  
    13     6    20 1   
    14     7    10 2   
    15     7    12 1   
    16     7    21 1   
    17     8     9 2   
    18     9    10 1   
    19     9    14 1   
    20    10    11 1   
    21    11    22 1   
    22    12    13 1   
    23    13    23 1   
    24    13    24 1   
    25    13    25 1   
    26    14    26 1   
    27    15    16 1   
    28    16    27 1   
@<TRIPOS>SUBSTRUCTURE
     1 WS4         1 TEMP              0 ****  ****    0 ROOT
