@<TRIPOS>MOLECULE
WS5
   68    70     1     0     0
SMALL
abcg2


@<TRIPOS>ATOM
      1 N1           1.7620    -3.1420    12.9370 n3         1 WS5      -0.803500
      2 N3           1.2270    -7.8930    16.6990 ns         1 WS5      -0.500900
      3 C4          -0.4210    -5.3480    10.3370 ca         1 WS5      -0.099300
      4 C5           0.0710    -4.8530    11.6580 c3         1 WS5      -0.252100
      5 C6           2.8810    -3.8130    13.5900 c6         1 WS5       0.156500
      6 C7           2.4780    -4.4970    14.8990 c          1 WS5       0.594100
      7 C8           0.6850    -5.6140    16.0850 c3         1 WS5       0.032700
      8 C10         -1.4100    -4.2100    16.6390 c3         1 WS5      -0.058700
      9 C13          1.1200    -7.0270    15.6800 c          1 WS5       0.583100
     10 C15          3.1220    -9.3780    16.1840 ca         1 WS5      -0.161300
     11 C17          5.7510    -9.7250    15.5500 ca         1 WS5       0.339900
     12 C20          4.0720    -2.8710    13.7550 c6         1 WS5      -0.078400
     13 C21          3.6720    -1.5460    14.3890 c6         1 WS5      -0.076400
     14 C22          2.5420    -0.8970    13.5980 c6         1 WS5      -0.096400
     15 C24         -1.4870    -4.7180     9.7020 ca         1 WS5      -0.057500
     16 C1          -1.3020    -6.2280     7.8730 ca         1 WS5       0.182000
     17 C11         -2.9340    -4.2790    16.6210 c3         1 WS5      -0.091600
     18 C12         -0.9080    -3.8110    18.0230 c3         1 WS5      -0.091600
     19 C14          1.6530    -9.2580    16.5050 c3         1 WS5       0.159300
     20 C16          3.5670   -10.2480    15.1960 ca         1 WS5       0.353900
     21 C18          5.4200    -8.8220    16.5500 ca         1 WS5      -0.160000
     22 C19          4.0850    -8.6470    16.8700 ca         1 WS5      -0.055000
     23 C2          -0.2370    -6.8730     8.4720 ca         1 WS5      -0.153000
     24 C23          1.3600    -1.8450    13.4950 c6         1 WS5       0.223800
     25 C25         -1.9390    -5.1550     8.4670 ca         1 WS5      -0.153000
     26 C3           0.2010    -6.4220     9.7070 ca         1 WS5      -0.057500
     27 C9          -0.8400    -5.5540    16.1810 c3         1 WS5      -0.084400
     28 F1          -1.7350    -6.6600     6.6800 f          1 WS5      -0.177000
     29 N2           1.1640    -4.6680    15.1130 ns         1 WS5      -0.478900
     30 N4           4.8450   -10.4270    14.8820 nb         1 WS5      -0.666000
     31 O1           2.4590    -4.2230    10.7460 o          1 WS5      -0.528500
     32 O3           3.3300    -4.9240    15.6610 o          1 WS5      -0.598100
     33 O4           0.6890    -2.4490    10.7590 o          1 WS5      -0.528500
     34 S1           1.3270    -3.5850    11.4050 s6         1 WS5       1.198100
     35 H17          1.1100    -7.5610    17.6420 hn         1 WS5       0.316500
     36 H4          -0.7220    -4.3880    12.2470 h1         1 WS5       0.103200
     37 H3           0.5320    -5.6430    12.2560 h1         1 WS5       0.103200
     38 H5           3.1990    -4.6460    12.9570 h1         1 WS5       0.102700
     39 H7           1.1200    -5.3820    17.0610 h1         1 WS5       0.080700
     40 H10         -1.1040    -3.4340    15.9270 hc         1 WS5       0.046700
     41 H21          6.7880    -9.8840    15.2770 h4         1 WS5       0.018100
     42 H25          4.8470    -3.3690    14.3350 hc         1 WS5       0.067200
     43 H24          4.4880    -2.6880    12.7610 hc         1 WS5       0.067200
     44 H27          3.3490    -1.7060    15.4230 hc         1 WS5       0.048700
     45 H26          4.5370    -0.8830    14.4330 hc         1 WS5       0.048700
     46 H29          2.8890    -0.6330    12.5950 hc         1 WS5       0.054700
     47 H28          2.2120     0.0250    14.0810 hc         1 WS5       0.054700
     48 H32         -1.9830    -3.8820    10.1800 ha         1 WS5       0.127000
     49 H13         -3.3740    -3.3230    16.9080 hc         1 WS5       0.036700
     50 H12         -3.3100    -4.5340    15.6290 hc         1 WS5       0.036700
     51 H11         -3.2990    -5.0350    17.3200 hc         1 WS5       0.036700
     52 H16         -1.3780    -2.8810    18.3470 hc         1 WS5       0.036700
     53 H14         -1.1500    -4.5790    18.7620 hc         1 WS5       0.036700
     54 H15          0.1710    -3.6520    18.0470 hc         1 WS5       0.036700
     55 H19          1.0620    -9.7270    15.7170 h1         1 WS5       0.059200
     56 H18          1.4330    -9.7990    17.4250 h1         1 WS5       0.059200
     57 H20          2.8460   -10.8290    14.6270 h4         1 WS5       0.018100
     58 H22          6.1960    -8.2700    17.0650 ha         1 WS5       0.124000
     59 H23          3.7980    -7.9490    17.6480 ha         1 WS5       0.116000
     60 H1           0.2420    -7.7110     7.9840 ha         1 WS5       0.135000
     61 H30          0.5630    -1.4240    12.8900 h1         1 WS5       0.059200
     62 H31          0.9420    -2.0190    14.4910 h1         1 WS5       0.059200
     63 H33         -2.7710    -4.6680     7.9750 ha         1 WS5       0.135000
     64 H2           1.0300    -6.9240    10.1890 ha         1 WS5       0.127000
     65 H8          -1.2630    -5.8130    15.2040 hc         1 WS5       0.054700
     66 H9          -1.1690    -6.3310    16.8770 hc         1 WS5       0.054700
     67 H6           0.5210    -4.3600    14.4010 hn         1 WS5       0.320500
     68 O2           1.3150    -7.3390    14.5170 o          1 WS5      -0.597100
@<TRIPOS>BOND
     1     1     5 1   
     2     1    24 1   
     3     1    34 1   
     4     2     9 1   
     5     2    19 1   
     6     2    35 1   
     7     3     4 1   
     8     3    15 ar  
     9     3    26 ar  
    10     4    34 1   
    11     4    36 1   
    12     4    37 1   
    13     5     6 1   
    14     5    12 1   
    15     5    38 1   
    16     6    29 1   
    17     6    32 2   
    18     7     9 1   
    19     7    27 1   
    20     7    29 1   
    21     7    39 1   
    22     8    17 1   
    23     8    18 1   
    24     8    27 1   
    25     8    40 1   
    26     9    68 2   
    27    10    19 1   
    28    10    20 ar  
    29    10    22 ar  
    30    11    21 ar  
    31    11    30 ar  
    32    11    41 1   
    33    12    13 1   
    34    12    42 1   
    35    12    43 1   
    36    13    14 1   
    37    13    44 1   
    38    13    45 1   
    39    14    24 1   
    40    14    46 1   
    41    14    47 1   
    42    15    25 ar  
    43    15    48 1   
    44    16    23 ar  
    45    16    25 ar  
    46    16    28 1   
    47    17    49 1   
    48    17    50 1   
    49    17    51 1   
    50    18    52 1   
    51    18    53 1   
    52    18    54 1   
    53    19    55 1   
    54    19    56 1   
    55    20    30 ar  
    56    20    57 1   
    57    21    22 ar  
    58    21    58 1   
    59    22    59 1   
    60    23    26 ar  
    61    23    60 1   
    62    24    61 1   
    63    24    62 1   
    64    25    63 1   
    65    26    64 1   
    66    27    65 1   
    67    27    66 1   
    68    29    67 1   
    69    31    34 2   
    70    33    34 2   
@<TRIPOS>SUBSTRUCTURE
     1 WS5         1 TEMP              0 ****  ****    0 ROOT
