@<TRIPOS>MOLECULE
WS5
   68    70     1     0     0
SMALL
No Charge or Current Charge


@<TRIPOS>ATOM
      1 N1           0.7740    -4.6340    12.1210 n3         1 WS5      -0.803500
      2 N3           1.6380    -7.0920    18.4730 ns         1 WS5      -0.500900
      3 C4           1.5480    -4.0730     8.0380 ca         1 WS5      -0.099300
      4 C5           1.4440    -4.7360     9.4080 c3         1 WS5      -0.252100
      5 C6           0.4900    -3.8920    13.4040 c6         1 WS5       0.156500
      6 C7           1.4350    -4.2840    14.6050 c          1 WS5       0.594100
      7 C8           1.5450    -5.0840    17.0240 c3         1 WS5       0.032700
      8 C10          2.3610    -2.6660    17.6920 c3         1 WS5      -0.058700
      9 C13          0.8650    -6.3600    17.5980 c          1 WS5       0.583100
     10 C15          1.3120    -9.5110    18.1430 ca         1 WS5      -0.161300
     11 C17          1.3830   -11.6320    16.3830 ca         1 WS5       0.339900
     12 C20         -1.0440    -3.9560    13.7180 c6         1 WS5      -0.078400
     13 C21         -1.5850    -5.4120    13.7450 c6         1 WS5      -0.076400
     14 C22         -1.1960    -6.1710    12.4540 c6         1 WS5      -0.096400
     15 C24          0.4920    -4.1940     7.1120 ca         1 WS5      -0.057500
     16 C1           1.7390    -2.8560     5.5090 ca         1 WS5       0.182000
     17 C11          2.0940    -1.5200    18.6950 c3         1 WS5      -0.091600
     18 C12          3.8800    -2.9320    17.5670 c3         1 WS5      -0.091600
     19 C14          1.2110    -8.3400    19.1050 c3         1 WS5       0.159300
     20 C16          0.1520   -10.0610    17.5630 ca         1 WS5       0.353900
     21 C18          2.5910   -11.1450    16.9100 ca         1 WS5      -0.160000
     22 C19          2.5610   -10.0650    17.8080 ca         1 WS5      -0.055000
     23 C2           2.7940    -2.7330     6.4250 ca         1 WS5      -0.153000
     24 C23          0.3220    -6.0510    12.1680 c6         1 WS5       0.223800
     25 C25          0.5880    -3.5850     5.8480 ca         1 WS5      -0.153000
     26 C3           2.7000    -3.3410     7.6890 ca         1 WS5      -0.057500
     27 C9           1.5600    -3.9410    18.0790 c3         1 WS5      -0.084400
     28 F1           1.8300    -2.2720     4.2950 f          1 WS5      -0.177000
     29 N2           0.8360    -4.6570    15.7960 ns         1 WS5      -0.478900
     30 N4           0.1770   -11.1050    16.7000 nb         1 WS5      -0.666000
     31 O1           1.3310    -2.5090    10.8160 o          1 WS5      -0.528500
     32 O3           2.6560    -4.2640    14.4960 o          1 WS5      -0.598100
     33 O4          -0.8630    -3.7090    10.3400 o          1 WS5      -0.528500
     34 S1           0.5710    -3.7540    10.6470 s6         1 WS5       1.198100
     35 H17          2.5680    -6.7430    18.6730 hn         1 WS5       0.316500
     36 H4           0.9030    -5.6840     9.3260 h1         1 WS5       0.103200
     37 H3           2.4380    -4.9250     9.8270 h1         1 WS5       0.103200
     38 H5           0.7330    -2.8270    13.2760 h1         1 WS5       0.102700
     39 H7           2.5750    -5.3680    16.7730 h1         1 WS5       0.080700
     40 H10          2.0030    -2.3190    16.7150 hc         1 WS5       0.046700
     41 H21          1.3800   -12.4700    15.6860 h4         1 WS5       0.018100
     42 H25         -1.2720    -3.4410    14.6610 hc         1 WS5       0.067200
     43 H24         -1.5900    -3.3930    12.9490 hc         1 WS5       0.067200
     44 H27         -1.1950    -5.9560    14.6150 hc         1 WS5       0.048700
     45 H26         -2.6790    -5.4030    13.8560 hc         1 WS5       0.048700
     46 H29         -1.7750    -5.7870    11.6050 hc         1 WS5       0.054700
     47 H28         -1.4670    -7.2310    12.5520 hc         1 WS5       0.054700
     48 H32         -0.4020    -4.7580     7.3710 ha         1 WS5       0.127000
     49 H13          2.6260    -0.6090    18.3940 hc         1 WS5       0.036700
     50 H12          1.0240    -1.2840    18.7410 hc         1 WS5       0.036700
     51 H11          2.4280    -1.7960    19.7030 hc         1 WS5       0.036700
     52 H16          4.4110    -2.0130    17.2910 hc         1 WS5       0.036700
     53 H14          4.2930    -3.2910    18.5180 hc         1 WS5       0.036700
     54 H15          4.0940    -3.6810    16.7970 hc         1 WS5       0.036700
     55 H19          0.1790    -8.2290    19.4640 h1         1 WS5       0.059200
     56 H18          1.8490    -8.5280    19.9790 h1         1 WS5       0.059200
     57 H20         -0.8330    -9.6570    17.7970 h4         1 WS5       0.018100
     58 H22          3.5330   -11.6030    16.6230 ha         1 WS5       0.124000
     59 H23          3.4830    -9.6690    18.2300 ha         1 WS5       0.116000
     60 H1           3.6830    -2.1670     6.1550 ha         1 WS5       0.135000
     61 H30          0.5650    -6.5900    11.2420 h1         1 WS5       0.059200
     62 H31          0.8600    -6.5770    12.9710 h1         1 WS5       0.059200
     63 H33         -0.2250    -3.6770     5.1330 ha         1 WS5       0.135000
     64 H2           3.5200    -3.2410     8.3980 ha         1 WS5       0.127000
     65 H8           0.5200    -3.6600    18.2910 hc         1 WS5       0.054700
     66 H9           1.9650    -4.3300    19.0220 hc         1 WS5       0.054700
     67 H6          -0.1760    -4.6980    15.8040 hn         1 WS5       0.320500
     68 O2          -0.2700    -6.7070    17.2960 o          1 WS5      -0.597100
@<TRIPOS>BOND
     1     1     5 1   
     2     1    24 1   
     3     1    34 1   
     4     2     9 1   
     5     2    19 1   
     6     2    35 1   
     7     3     4 1   
     8     3    15 ar  
     9     3    26 ar  
    10     4    34 1   
    11     4    36 1   
    12     4    37 1   
    13     5     6 1   
    14     5    12 1   
    15     5    38 1   
    16     6    29 1   
    17     6    32 2   
    18     7     9 1   
    19     7    27 1   
    20     7    29 1   
    21     7    39 1   
    22     8    17 1   
    23     8    18 1   
    24     8    27 1   
    25     8    40 1   
    26     9    68 2   
    27    10    19 1   
    28    10    20 ar  
    29    10    22 ar  
    30    11    21 ar  
    31    11    30 ar  
    32    11    41 1   
    33    12    13 1   
    34    12    42 1   
    35    12    43 1   
    36    13    14 1   
    37    13    44 1   
    38    13    45 1   
    39    14    24 1   
    40    14    46 1   
    41    14    47 1   
    42    15    25 ar  
    43    15    48 1   
    44    16    23 ar  
    45    16    25 ar  
    46    16    28 1   
    47    17    49 1   
    48    17    50 1   
    49    17    51 1   
    50    18    52 1   
    51    18    53 1   
    52    18    54 1   
    53    19    55 1   
    54    19    56 1   
    55    20    30 ar  
    56    20    57 1   
    57    21    22 ar  
    58    21    58 1   
    59    22    59 1   
    60    23    26 ar  
    61    23    60 1   
    62    24    61 1   
    63    24    62 1   
    64    25    63 1   
    65    26    64 1   
    66    27    65 1   
    67    27    66 1   
    68    29    67 1   
    69    31    34 2   
    70    33    34 2   
@<TRIPOS>SUBSTRUCTURE
     1 WS5         1 TEMP              0 ****  ****    0 ROOT
