@<TRIPOS>MOLECULE
WS6
   31    33     1     0     0
SMALL
bcc


@<TRIPOS>ATOM
      1 O04          2.1110    -2.5970     0.5430 o          1 WS6      -0.588500
      2 C04          2.0550    -1.4060     0.2820 c          1 WS6       0.761700
      3 N03          3.2370    -0.6880     0.0800 ns         1 WS6      -0.522400
      4 C02          3.2800     0.6160    -0.2850 cc         1 WS6       0.780800
      5 N02          4.4730     1.1590    -0.5010 nv         1 WS6      -0.943800
      6 N01          2.2000     1.3540    -0.4270 nd         1 WS6      -0.781300
      7 C01          1.0270     0.7580    -0.1820 cd         1 WS6       0.465600
      8 C4A          0.8820    -0.6000     0.1590 cc         1 WS6      -0.227600
      9 N05         -0.3430    -1.1940     0.1680 ne         1 WS6      -0.398300
     10 N10         -0.0890     1.4740    -0.3360 nu         1 WS6      -0.727000
     11 C9A         -1.3420     1.0450     0.2730 c6         1 WS6       0.191900
     12 C09         -2.5010     1.7230    -0.4570 c6         1 WS6      -0.078400
     13 C11         -1.3430     1.3930     1.7660 c3         1 WS6      -0.115100
     14 C5A         -1.3990    -0.4690     0.1300 cf         1 WS6       0.239300
     15 C06         -2.7040    -1.1730     0.0230 c          1 WS6       0.506800
     16 O06         -2.7950    -2.3620     0.2530 o          1 WS6      -0.493100
     17 C07         -3.8860    -0.3670    -0.4520 c6         1 WS6      -0.179400
     18 C08         -3.8390     1.1090    -0.0780 c6         1 WS6      -0.062400
     19 H021         5.3300     0.6440    -0.3930 hn         1 WS6       0.458800
     20 H022         4.5310     2.1290    -0.7600 hn         1 WS6       0.458800
     21 H10          0.0130     2.4480    -0.5860 hn         1 WS6       0.444800
     22 H091        -2.4920     2.7930    -0.2310 hc         1 WS6       0.050200
     23 H092        -2.3500     1.6210    -1.5360 hc         1 WS6       0.050200
     24 H111        -1.2690     2.4730     1.9050 hc         1 WS6       0.048033
     25 H112        -2.2550     1.0500     2.2560 hc         1 WS6       0.048033
     26 H113        -0.4990     0.9250     2.2760 hc         1 WS6       0.048033
     27 H081        -4.0330     1.2360     0.9900 hc         1 WS6       0.048200
     28 H082        -4.6420     1.6350    -0.5960 hc         1 WS6       0.048200
     29 H071        -3.8850    -0.4560    -1.5460 hc         1 WS6       0.070200
     30 H072        -4.8060    -0.8410    -0.1060 hc         1 WS6       0.070200
     31 H03          4.1010    -1.2040     0.1830 hn         1 WS6       0.324500
@<TRIPOS>BOND
     1     1     2 2   
     2     2     3 1   
     3     2     8 1   
     4     3     4 1   
     5     3    31 1   
     6     4     5 1   
     7     4     6 2   
     8     5    19 1   
     9     5    20 1   
    10     6     7 1   
    11     7     8 2   
    12     7    10 1   
    13     8     9 1   
    14     9    14 2   
    15    10    11 1   
    16    10    21 1   
    17    11    12 1   
    18    11    13 1   
    19    11    14 1   
    20    12    18 1   
    21    12    22 1   
    22    12    23 1   
    23    13    24 1   
    24    13    25 1   
    25    13    26 1   
    26    14    15 1   
    27    15    16 2   
    28    15    17 1   
    29    17    18 1   
    30    17    29 1   
    31    17    30 1   
    32    18    27 1   
    33    18    28 1   
@<TRIPOS>SUBSTRUCTURE
     1 WS6         1 TEMP              0 ****  ****    0 ROOT
