@<TRIPOS>MOLECULE
WS6
   31    33     1     0     0
SMALL
No Charge or Current Charge


@<TRIPOS>ATOM
      1 O04          2.2530    -2.6290     0.5440 o          1 WS6      -0.513000
      2 C04          2.1950    -1.4370     0.2790 c          1 WS6       0.619200
      3 N03          3.3030    -0.7090     0.0570 ns         1 WS6      -0.455400
      4 C02          3.2740     0.5950    -0.2270 cc         1 WS6       0.780800
      5 N02          4.4360     1.1770    -0.4180 nv         1 WS6      -1.054200
      6 N01          2.2340     1.3650    -0.3370 nd         1 WS6      -0.781300
      7 C01          1.0510     0.7000    -0.1350 cd         1 WS6       0.465600
      8 C4A          0.9570    -0.6470     0.1670 cc         1 WS6      -0.227600
      9 N05         -0.3010    -1.2390     0.3580 ne         1 WS6      -0.398300
     10 N10         -0.0320     1.4970    -0.2340 nu         1 WS6      -0.782200
     11 C9A         -1.3350     1.0450     0.3090 c6         1 WS6       0.191900
     12 C09         -2.4750     1.7170    -0.5010 c6         1 WS6      -0.078400
     13 C11         -1.3870     1.4460     1.8140 c3         1 WS6      -0.115100
     14 C5A         -1.4020    -0.5250     0.2170 cf         1 WS6       0.239300
     15 C06         -2.7300    -1.2160    -0.0040 c          1 WS6       0.506800
     16 O06         -2.8870    -2.4230     0.1660 o          1 WS6      -0.493100
     17 C07         -3.9270    -0.3690    -0.4840 c6         1 WS6      -0.179400
     18 C08         -3.8620     1.1370    -0.1450 c6         1 WS6      -0.062400
     19 H021         5.1420     0.6150    -0.8770 hn         1 WS6       0.514000
     20 H022         4.3390     2.1130    -0.7910 hn         1 WS6       0.514000
     21 H10          0.2020     2.4860    -0.2610 hn         1 WS6       0.500000
     22 H091        -2.4730     2.8020    -0.3270 hc         1 WS6       0.050200
     23 H092        -2.2950     1.5810    -1.5770 hc         1 WS6       0.050200
     24 H111        -1.3790     2.5360     1.9390 hc         1 WS6       0.048033
     25 H112        -2.2850     1.0610     2.3100 hc         1 WS6       0.048033
     26 H113        -0.5250     1.0460     2.3630 hc         1 WS6       0.048033
     27 H081        -4.0910     1.2970     0.9160 hc         1 WS6       0.048200
     28 H082        -4.6400     1.6720    -0.7060 hc         1 WS6       0.048200
     29 H071        -3.9130    -0.4500    -1.5800 hc         1 WS6       0.070200
     30 H072        -4.8670    -0.8360    -0.1620 hc         1 WS6       0.070200
     31 H03          4.1860    -1.1800     0.1440 hn         1 WS6       0.324500
@<TRIPOS>BOND
     1     1     2 2   
     2     2     3 1   
     3     2     8 1   
     4     3     4 1   
     5     3    31 1   
     6     4     5 1   
     7     4     6 2   
     8     5    19 1   
     9     5    20 1   
    10     6     7 1   
    11     7     8 2   
    12     7    10 1   
    13     8     9 1   
    14     9    14 2   
    15    10    11 1   
    16    10    21 1   
    17    11    12 1   
    18    11    13 1   
    19    11    14 1   
    20    12    18 1   
    21    12    22 1   
    22    12    23 1   
    23    13    24 1   
    24    13    25 1   
    25    13    26 1   
    26    14    15 1   
    27    15    16 2   
    28    15    17 1   
    29    17    18 1   
    30    17    29 1   
    31    17    30 1   
    32    18    27 1   
    33    18    28 1   
@<TRIPOS>SUBSTRUCTURE
     1 WS6         1 TEMP              0 ****  ****    0 ROOT
