@<TRIPOS>MOLECULE
WS7
   32    34     1     0     0
SMALL
abcg2


@<TRIPOS>ATOM
      1 O04          2.1480    -2.6270     0.4660 o          1 WS7      -0.533000
      2 C04          2.0060    -1.4270     0.2560 c          1 WS7       0.618200
      3 N03          3.1450    -0.6180     0.1420 ns         1 WS7      -0.453400
      4 C02          3.1100     0.7070    -0.1300 cc         1 WS7       0.764800
      5 N02          4.2750     1.3450    -0.2760 nv         1 WS7      -1.052200
      6 N01          1.9870     1.3710    -0.2710 nd         1 WS7      -0.774300
      7 C1A          0.8510     0.6640    -0.1370 cd         1 WS7       0.455600
      8 C4A          0.7940    -0.7060     0.1100 cc         1 WS7      -0.210600
      9 N05         -0.4140    -1.3870     0.1070 ne         1 WS7      -0.472300
     10 N10         -0.3050     1.3220    -0.3060 nu         1 WS7      -0.791200
     11 C9A         -1.5830     0.7850     0.1430 c6         1 WS7       0.177900
     12 C09         -2.6720     1.3110    -0.8060 c6         1 WS7      -0.076400
     13 C10         -1.8530     1.2190     1.5910 c3         1 WS7      -0.112100
     14 C5A         -1.5060    -0.7360     0.0890 c2         1 WS7       0.352300
     15 C06         -2.8130    -1.4730     0.1160 c6         1 WS7      -0.102700
     16 C07         -3.8380    -0.8980    -0.8590 c6         1 WS7      -0.074400
     17 C08         -4.0070     0.5990    -0.6420 c6         1 WS7      -0.070400
     18 H021         5.1510     0.9040    -0.0560 hn         1 WS7       0.506500
     19 H022         4.2670     2.3470    -0.3530 hn         1 WS7       0.506500
     20 H10         -0.2440     2.3210    -0.4410 hn         1 WS7       0.496000
     21 H091        -2.7860     2.3880    -0.6490 hc         1 WS7       0.047700
     22 H092        -2.3220     1.1750    -1.8340 hc         1 WS7       0.047700
     23 H101        -1.8820     2.3090     1.6560 hc         1 WS7       0.044367
     24 H102        -2.8030     0.8400     1.9680 hc         1 WS7       0.044367
     25 H103        -1.0650     0.8600     2.2540 hc         1 WS7       0.044367
     26 H081        -4.4210     0.7870     0.3530 hc         1 WS7       0.041700
     27 H082        -4.7250     1.0090    -1.3550 hc         1 WS7       0.041700
     28 H061        -2.6220    -2.5280    -0.0840 hc         1 WS7       0.058700
     29 H062        -3.2280    -1.4170     1.1300 hc         1 WS7       0.058700
     30 H071        -3.5110    -1.0830    -1.8870 hc         1 WS7       0.045700
     31 H072        -4.7910    -1.4160    -0.7330 hc         1 WS7       0.045700
     32 H03          4.0380    -1.0790     0.2590 hn         1 WS7       0.323500
@<TRIPOS>BOND
     1     1     2 2   
     2     2     3 1   
     3     2     8 1   
     4     3     4 1   
     5     3    32 1   
     6     4     5 1   
     7     4     6 2   
     8     5    18 1   
     9     5    19 1   
    10     6     7 1   
    11     7     8 2   
    12     7    10 1   
    13     8     9 1   
    14     9    14 2   
    15    10    11 1   
    16    10    20 1   
    17    11    12 1   
    18    11    13 1   
    19    11    14 1   
    20    12    17 1   
    21    12    21 1   
    22    12    22 1   
    23    13    23 1   
    24    13    24 1   
    25    13    25 1   
    26    14    15 1   
    27    15    16 1   
    28    15    28 1   
    29    15    29 1   
    30    16    17 1   
    31    16    30 1   
    32    16    31 1   
    33    17    26 1   
    34    17    27 1   
@<TRIPOS>SUBSTRUCTURE
     1 WS7         1 TEMP              0 ****  ****    0 ROOT
