@<TRIPOS>MOLECULE
WS7
   32    34     1     0     0
SMALL
No Charge or Current Charge


@<TRIPOS>ATOM
      1 O04          2.2520    -2.6830     0.1510 o          1 WS7      -0.533000
      2 C04          2.1250    -1.4720     0.0420 c          1 WS7       0.618200
      3 N03          3.1920    -0.6620    -0.0730 ns         1 WS7      -0.453400
      4 C02          3.0930     0.6630    -0.1970 cc         1 WS7       0.764800
      5 N02          4.2250     1.3270    -0.2920 nv         1 WS7      -1.052200
      6 N01          2.0120     1.3820    -0.2320 nd         1 WS7      -0.774300
      7 C1A          0.8640     0.6360    -0.1260 cd         1 WS7       0.455600
      8 C4A          0.8410    -0.7440     0.0190 cc         1 WS7      -0.210600
      9 N05         -0.3810    -1.4300     0.1290 ne         1 WS7      -0.472300
     10 N10         -0.2540     1.3880    -0.1550 nu         1 WS7      -0.791200
     11 C9A         -1.5740     0.8040     0.1940 c6         1 WS7       0.177900
     12 C09         -2.6030     1.2920    -0.8690 c6         1 WS7      -0.076400
     13 C10         -1.9340     1.3110     1.6220 c3         1 WS7      -0.112100
     14 C5A         -1.5060    -0.7610     0.2010 c2         1 WS7       0.352300
     15 C06         -2.8550    -1.4720     0.2630 c6         1 WS7      -0.102700
     16 C07         -3.8340    -0.9470    -0.8140 c6         1 WS7      -0.074400
     17 C08         -3.9810     0.5920    -0.7420 c6         1 WS7      -0.070400
     18 H021         5.0050     0.9550     0.2350 hn         1 WS7       0.506500
     19 H022         4.0980     2.3270    -0.2100 hn         1 WS7       0.506500
     20 H10         -0.0840     2.3870    -0.0800 hn         1 WS7       0.496000
     21 H091        -2.7350     2.3810    -0.7990 hc         1 WS7       0.047700
     22 H092        -2.2060     1.0980    -1.8760 hc         1 WS7       0.047700
     23 H101        -1.9840     2.4060     1.6570 hc         1 WS7       0.044367
     24 H102        -2.9020     0.9300     1.9640 hc         1 WS7       0.044367
     25 H103        -1.1830     0.9900     2.3540 hc         1 WS7       0.044367
     26 H081        -4.4700     0.8790     0.1990 hc         1 WS7       0.041700
     27 H082        -4.6440     0.9360    -1.5470 hc         1 WS7       0.041700
     28 H061        -2.7160    -2.5540     0.1360 hc         1 WS7       0.058700
     29 H062        -3.2910    -1.3370     1.2610 hc         1 WS7       0.058700
     30 H071        -3.4720    -1.2350    -1.8110 hc         1 WS7       0.045700
     31 H072        -4.8170    -1.4220    -0.6900 hc         1 WS7       0.045700
     32 H03          4.0980    -1.0980    -0.0900 hn         1 WS7       0.323500
@<TRIPOS>BOND
     1     1     2 2   
     2     2     3 1   
     3     2     8 1   
     4     3     4 1   
     5     3    32 1   
     6     4     5 1   
     7     4     6 2   
     8     5    18 1   
     9     5    19 1   
    10     6     7 1   
    11     7     8 2   
    12     7    10 1   
    13     8     9 1   
    14     9    14 2   
    15    10    11 1   
    16    10    20 1   
    17    11    12 1   
    18    11    13 1   
    19    11    14 1   
    20    12    17 1   
    21    12    21 1   
    22    12    22 1   
    23    13    23 1   
    24    13    24 1   
    25    13    25 1   
    26    14    15 1   
    27    15    16 1   
    28    15    28 1   
    29    15    29 1   
    30    16    17 1   
    31    16    30 1   
    32    16    31 1   
    33    17    26 1   
    34    17    27 1   
@<TRIPOS>SUBSTRUCTURE
     1 WS7         1 TEMP              0 ****  ****    0 ROOT
