@<TRIPOS>MOLECULE
WS9
   61    64     1     0     0
SMALL
abcg2


@<TRIPOS>ATOM
      1 C10         42.2370     3.0070    60.6360 ca         1 WS9      -0.095000
      2 C11         41.5110     4.0550    61.1690 ca         1 WS9       0.084100
      3 C13         40.4610     4.4530    59.0620 ca         1 WS9      -0.097000
      4 O14         41.7350     4.4330    62.5130 os         1 WS9      -0.402100
      5 C15         40.9350     3.9000    63.4510 c3         1 WS9       0.501000
      6 C19         40.4000     3.9890    56.0590 cx         1 WS9      -0.101900
      7 C20         39.5410     2.8690    56.5530 cx         1 WS9      -0.101900
      8 C24         45.6160    -1.6840    57.0890 c3         1 WS9       0.152900
      9 C25         47.1130    -1.5830    57.0930 c2         1 WS9      -0.198200
     10 C26         45.1380    -3.0440    56.5730 c3         1 WS9      -0.169400
     11 C27         43.6250    -3.1590    56.6630 c          1 WS9       0.601100
     12 C1          44.2000     1.5690    55.6930 c5         1 WS9       0.031700
     13 N2          43.1760     2.4670    56.2120 n          1 WS9      -0.400800
     14 C3          43.6490     3.8540    56.3460 c5         1 WS9       0.113000
     15 C4          45.1660     3.7140    56.2460 c5         1 WS9      -0.093400
     16 C5          45.3520     2.5180    55.3070 c5         1 WS9      -0.082400
     17 C6          41.9520     1.9960    56.5110 c          1 WS9       0.636100
     18 C7          40.9600     2.9990    57.0600 cx         1 WS9      -0.160700
     19 C8          41.1680     3.3910    58.4900 ca         1 WS9      -0.034300
     20 C9          42.0590     2.6780    59.2970 ca         1 WS9      -0.097000
     21 C12         40.6290     4.7920    60.3980 ca         1 WS9      -0.095000
     22 F16         40.9860     2.5530    63.4850 f          1 WS9      -0.109333
     23 F17         41.3340     4.3600    64.6400 f          1 WS9      -0.109333
     24 F18         39.6370     4.2290    63.2910 f          1 WS9      -0.109333
     25 O21         41.6630     0.8070    56.3510 o          1 WS9      -0.595100
     26 N23         45.0400    -0.6270    56.2610 ns         1 WS9      -0.502900
     27 N28         42.9970    -3.5500    55.5410 nt         1 WS9      -0.608000
     28 O29         43.0250    -2.9130    57.7090 o          1 WS9      -0.589100
     29 C31         47.8270    -1.3360    58.1920 ce         1 WS9      -0.244800
     30 C32         49.2680    -1.2150    58.2070 cc         1 WS9       0.490800
     31 N33         50.1340    -1.3210    57.2400 nd         1 WS9      -0.676000
     32 C34         51.3690    -1.1040    57.8310 cd         1 WS9       0.226900
     33 C35         51.1940    -0.8730    59.1510 cc         1 WS9       0.103900
     34 O36         49.8510    -0.9410    59.4080 os         1 WS9      -0.265000
     35 H45         42.9320     2.4570    61.2560 ha         1 WS9       0.137500
     36 H47         39.7680     5.0350    58.4700 ha         1 WS9       0.137000
     37 H48         40.2050     4.9970    56.3980 hc         1 WS9       0.082450
     38 H49         40.7830     3.9210    55.0490 hc         1 WS9       0.082450
     39 H51         39.3330     2.0460    55.8830 hc         1 WS9       0.082450
     40 H50         38.7550     3.0970    57.2600 hc         1 WS9       0.082450
     41 H53         45.2380    -1.5330    58.0970 h1         1 WS9       0.109700
     42 H1          47.6090    -1.6990    56.1340 ha         1 WS9       0.187000
     43 H55         45.4900    -3.2050    55.5520 hc         1 WS9       0.064700
     44 H54         45.5690    -3.8280    57.1990 hc         1 WS9       0.064700
     45 H37         43.8170     1.0270    54.8280 h1         1 WS9       0.071700
     46 H39         43.2500     4.4640    55.5320 h1         1 WS9       0.053700
     47 H38         43.3270     4.2850    57.2910 h1         1 WS9       0.053700
     48 H41         45.6370     4.6220    55.8710 hc         1 WS9       0.065200
     49 H40         45.5830     3.4890    57.2280 hc         1 WS9       0.065200
     50 H42         46.3260     2.0410    55.4020 hc         1 WS9       0.057700
     51 H43         45.2240     2.8240    54.2680 hc         1 WS9       0.057700
     52 H44         42.6390     1.8630    58.8850 ha         1 WS9       0.137000
     53 H46         40.0850     5.6190    60.8330 ha         1 WS9       0.137500
     54 H52         45.0220    -0.7660    55.2610 hn         1 WS9       0.309500
     55 H56         41.9950    -3.6640    55.5440 hn         1 WS9       0.315000
     56 H57         43.4990    -3.7390    54.6910 hn         1 WS9       0.315000
     57 H31         47.3370    -1.2090    59.1500 ha         1 WS9       0.206000
     58 H58         52.2870    -1.1300    57.2670 h4         1 WS9       0.049100
     59 H59         51.8430    -0.6620    59.9810 h4         1 WS9       0.066100
     60 C22         44.6440     0.5610    56.7560 c          1 WS9       0.603100
     61 O30         44.6700     0.8390    57.9520 o          1 WS9      -0.596100
@<TRIPOS>BOND
     1     1     2 ar  
     2     1    20 ar  
     3     1    35 1   
     4     2     4 1   
     5     2    21 ar  
     6     3    19 ar  
     7     3    21 ar  
     8     3    36 1   
     9     4     5 1   
    10     5    22 1   
    11     5    23 1   
    12     5    24 1   
    13     6     7 1   
    14     6    18 1   
    15     6    37 1   
    16     6    38 1   
    17     7    18 1   
    18     7    39 1   
    19     7    40 1   
    20     8     9 1   
    21     8    10 1   
    22     8    26 1   
    23     8    41 1   
    24     9    29 2   
    25     9    42 1   
    26    10    11 1   
    27    10    43 1   
    28    10    44 1   
    29    11    27 1   
    30    11    28 2   
    31    12    13 1   
    32    12    16 1   
    33    12    45 1   
    34    12    60 1   
    35    13    14 1   
    36    13    17 1   
    37    14    15 1   
    38    14    46 1   
    39    14    47 1   
    40    15    16 1   
    41    15    48 1   
    42    15    49 1   
    43    16    50 1   
    44    16    51 1   
    45    17    18 1   
    46    17    25 2   
    47    18    19 1   
    48    19    20 ar  
    49    20    52 1   
    50    21    53 1   
    51    26    54 1   
    52    26    60 1   
    53    27    55 1   
    54    27    56 1   
    55    29    30 1   
    56    29    57 1   
    57    30    31 2   
    58    30    34 1   
    59    31    32 1   
    60    32    33 2   
    61    32    58 1   
    62    33    34 1   
    63    33    59 1   
    64    60    61 2   
@<TRIPOS>SUBSTRUCTURE
     1 WS9         1 TEMP              0 ****  ****    0 ROOT
