@<TRIPOS>MOLECULE
WS9
   61    64     1     0     0
SMALL
No Charge or Current Charge


@<TRIPOS>ATOM
      1 C10         40.1420     2.5160    60.4430 ca         1 WS9      -0.095000
      2 C11         40.4300     3.7590    61.0510 ca         1 WS9       0.084100
      3 C13         41.0720     4.6500    58.8700 ca         1 WS9      -0.097000
      4 O14         40.2790     4.0020    62.4050 os         1 WS9      -0.402100
      5 C15         39.8160     3.0210    63.3550 c3         1 WS9       0.501000
      6 C19         40.7850     4.3220    55.7640 cx         1 WS9      -0.101900
      7 C20         39.7410     3.2450    55.8920 cx         1 WS9      -0.101900
      8 C24         46.0330    -1.6170    57.6240 c3         1 WS9       0.152900
      9 C25         47.4760    -1.8570    57.2360 c2         1 WS9      -0.198200
     10 C26         45.1590    -2.8760    57.4360 c3         1 WS9      -0.169400
     11 C27         43.7310    -2.6590    57.9330 c          1 WS9       0.601100
     12 C1          44.4440     1.5250    56.1430 c5         1 WS9       0.031700
     13 N2          43.3590     2.4960    56.4500 n          1 WS9      -0.400800
     14 C3          43.8580     3.8550    56.7580 c5         1 WS9       0.113000
     15 C4          45.3760     3.6090    56.9450 c5         1 WS9      -0.093400
     16 C5          45.6500     2.4860    55.9130 c5         1 WS9      -0.082400
     17 C6          42.0000     2.1160    56.4540 c          1 WS9       0.636100
     18 C7          40.9750     3.2010    56.7770 cx         1 WS9      -0.160700
     19 C8          40.7920     3.4110    58.2600 ca         1 WS9      -0.034300
     20 C9          40.3220     2.3500    59.0580 ca         1 WS9      -0.097000
     21 C12         40.8930     4.8180    60.2540 ca         1 WS9      -0.095000
     22 F16         40.6310     1.9420    63.4130 f          1 WS9      -0.109333
     23 F17         39.7730     3.5470    64.5990 f          1 WS9      -0.109333
     24 F18         38.5670     2.5850    63.0700 f          1 WS9      -0.109333
     25 O21         41.6630     0.9650    56.2020 o          1 WS9      -0.595100
     26 N23         45.5390    -0.4980    56.8270 ns         1 WS9      -0.502900
     27 N28         42.8010    -2.3960    56.9900 nt         1 WS9      -0.608000
     28 O29         43.4150    -2.7430    59.1070 o          1 WS9      -0.589100
     29 C31         48.4960    -0.9850    57.4320 ce         1 WS9      -0.244800
     30 C32         49.8880    -1.1940    57.0660 cc         1 WS9       0.490800
     31 N33         50.3750    -2.2780    56.4820 nd         1 WS9      -0.676000
     32 C34         51.7210    -1.9980    56.3440 cd         1 WS9       0.226900
     33 C35         51.9710    -0.7520    56.8560 cc         1 WS9       0.103900
     34 O36         50.8090    -0.2230    57.3220 os         1 WS9      -0.265000
     35 H45         39.7800     1.6700    61.0180 ha         1 WS9       0.137500
     36 H47         41.4340     5.4870    58.2780 ha         1 WS9       0.137000
     37 H48         40.5190     5.3140    56.1190 hc         1 WS9       0.082450
     38 H49         41.4030     4.3150    54.8690 hc         1 WS9       0.082450
     39 H51         39.6590     2.5230    55.0820 hc         1 WS9       0.082450
     40 H50         38.7930     3.5130    56.3530 hc         1 WS9       0.082450
     41 H53         46.0070    -1.3380    58.6880 h1         1 WS9       0.109700
     42 H1          47.6670    -2.8230    56.7620 ha         1 WS9       0.187000
     43 H55         45.1490    -3.1220    56.3680 hc         1 WS9       0.064700
     44 H54         45.6080    -3.6960    58.0100 hc         1 WS9       0.064700
     45 H37         44.2190     0.9410    55.2400 h1         1 WS9       0.071700
     46 H39         43.6640     4.5390    55.9210 h1         1 WS9       0.053700
     47 H38         43.4130     4.2750    57.6680 h1         1 WS9       0.053700
     48 H41         45.9710     4.5110    56.7610 hc         1 WS9       0.065200
     49 H40         45.5990     3.2750    57.9650 hc         1 WS9       0.065200
     50 H42         46.6240     2.0040    56.0570 hc         1 WS9       0.057700
     51 H43         45.6390     2.8860    54.8920 hc         1 WS9       0.057700
     52 H44         40.0940     1.3890    58.6020 ha         1 WS9       0.137000
     53 H46         41.1150     5.7780    60.7140 ha         1 WS9       0.137500
     54 H52         45.8120    -0.4520    55.8530 hn         1 WS9       0.309500
     55 H56         41.8460    -2.2330    57.2700 hn         1 WS9       0.315000
     56 H57         43.0690    -2.3290    56.0200 hn         1 WS9       0.315000
     57 H31         48.3120    -0.0200    57.9030 ha         1 WS9       0.206000
     58 H58         52.4180    -2.6930    55.8940 h4         1 WS9       0.049100
     59 H59         52.8750    -0.1660    56.9420 h4         1 WS9       0.066100
     60 C22         44.7610     0.5350    57.3100 c          1 WS9       0.603100
     61 O30         44.3870     0.6050    58.4740 o          1 WS9      -0.596100
@<TRIPOS>BOND
     1     1     2 ar  
     2     1    20 ar  
     3     1    35 1   
     4     2     4 1   
     5     2    21 ar  
     6     3    19 ar  
     7     3    21 ar  
     8     3    36 1   
     9     4     5 1   
    10     5    22 1   
    11     5    23 1   
    12     5    24 1   
    13     6     7 1   
    14     6    18 1   
    15     6    37 1   
    16     6    38 1   
    17     7    18 1   
    18     7    39 1   
    19     7    40 1   
    20     8     9 1   
    21     8    10 1   
    22     8    26 1   
    23     8    41 1   
    24     9    29 2   
    25     9    42 1   
    26    10    11 1   
    27    10    43 1   
    28    10    44 1   
    29    11    27 1   
    30    11    28 2   
    31    12    13 1   
    32    12    16 1   
    33    12    45 1   
    34    12    60 1   
    35    13    14 1   
    36    13    17 1   
    37    14    15 1   
    38    14    46 1   
    39    14    47 1   
    40    15    16 1   
    41    15    48 1   
    42    15    49 1   
    43    16    50 1   
    44    16    51 1   
    45    17    18 1   
    46    17    25 2   
    47    18    19 1   
    48    19    20 ar  
    49    20    52 1   
    50    21    53 1   
    51    26    54 1   
    52    26    60 1   
    53    27    55 1   
    54    27    56 1   
    55    29    30 1   
    56    29    57 1   
    57    30    31 2   
    58    30    34 1   
    59    31    32 1   
    60    32    33 2   
    61    32    58 1   
    62    33    34 1   
    63    33    59 1   
    64    60    61 2   
@<TRIPOS>SUBSTRUCTURE
     1 WS9         1 TEMP              0 ****  ****    0 ROOT
