@<TRIPOS>MOLECULE
WSA
   61    65     1     0     0
SMALL
bcc


@<TRIPOS>ATOM
      1 CD2         -3.8360     2.2600    -0.0090 ca         1 WSA      -0.099800
      2 CE3         -3.0230     2.7940     1.0010 ca         1 WSA      -0.112000
      3 CZ3         -3.4840     3.8650     1.7430 ca         1 WSA      -0.159000
      4 CH2         -4.7550     4.4160     1.5100 ca         1 WSA      -0.112000
      5 CZ2         -5.5830     3.9070     0.5290 ca         1 WSA      -0.141000
      6 CE2         -5.1110     2.8320    -0.2230 ca         1 WSA      -0.050200
      7 N11         -5.6980     2.1480    -1.2450 na         1 WSA      -0.170400
      8 CD1         -4.8440     1.1790    -1.6880 cc         1 WSA      -0.097100
      9 CG          -3.6830     1.2010    -0.9650 cd         1 WSA      -0.154400
     10 CB          -2.5150     0.2900    -1.1630 c3         1 WSA      -0.026200
     11 CA          -2.5090    -0.8840    -0.1770 c3         1 WSA       0.089500
     12 NH3         -2.3890    -0.5520     1.2290 n8         1 WSA      -0.922800
     13 C           -1.4680    -1.9360    -0.5520 c          1 WSA       0.696100
     14 O           -1.0540    -2.1280    -1.6670 o          1 WSA      -0.521100
     15 NS          -1.1000    -2.7100     0.5310 ns         1 WSA      -0.693300
     16 S           -0.4250    -4.2140     0.4110 s6         1 WSA       1.586100
     17 O1S         -0.4510    -4.7550     1.7480 o          1 WSA      -0.615800
     18 O2S         -0.9970    -4.9270    -0.6970 o          1 WSA      -0.615800
     19 O5           1.0700    -3.9240    -0.0300 os         1 WSA      -0.524500
     20 C5           2.0180    -3.4980     0.9670 c3         1 WSA       0.167400
     21 C4           3.1750    -2.8630     0.2270 c5         1 WSA       0.139100
     22 O4           2.7380    -1.7070    -0.4810 os         1 WSA      -0.378600
     23 C3           4.2690    -2.3900     1.1810 c5         1 WSA       0.085100
     24 O3           5.4910    -2.4140     0.4960 oh         1 WSA      -0.575800
     25 C2           3.8200    -0.9530     1.4560 c5         1 WSA       0.059100
     26 O2           4.8360    -0.0800     1.8410 oh         1 WSA      -0.568800
     27 C1           3.2800    -0.5430     0.0860 c5         1 WSA       0.259800
     28 N9           2.2680     0.4770     0.1380 na         1 WSA      -0.255000
     29 C8           1.1050     0.4510     0.8570 cc         1 WSA       0.404700
     30 N7           0.3400     1.4770     0.6380 nd         1 WSA      -0.574100
     31 C7           1.0250     2.2280    -0.2870 ca         1 WSA      -0.235200
     32 C9           2.2250     1.6170    -0.6150 ca         1 WSA       0.480800
     33 N3           3.1310     2.0590    -1.4810 nb         1 WSA      -0.743000
     34 C10          2.7600     3.2010    -2.0350 ca         1 WSA       0.716900
     35 N1           1.6480     3.8960    -1.8230 nb         1 WSA      -0.830000
     36 C6           0.7420     3.4390    -0.9500 ca         1 WSA       0.784200
     37 N6          -0.3710     4.1450    -0.7530 nv         1 WSA      -0.953500
     38 HE3         -2.0470     2.3720     1.2080 ha         1 WSA       0.148000
     39 HZ3         -2.8600     4.2820     2.5220 ha         1 WSA       0.131000
     40 HH2         -5.0910     5.2520     2.1090 ha         1 WSA       0.131000
     41 HZ2         -6.5640     4.3290     0.3480 ha         1 WSA       0.133000
     42 HN11        -6.6110     2.3300    -1.6260 hn         1 WSA       0.302700
     43 HD1         -5.1240     0.5350    -2.5080 h4         1 WSA       0.168000
     44 HB1         -2.5380    -0.1040    -2.1800 hc         1 WSA       0.072200
     45 HB2         -1.5790     0.8480    -1.0660 hc         1 WSA       0.072200
     46 HA          -3.4590    -1.4210    -0.2940 h1         1 WSA       0.074700
     47 HH31        -1.7060     0.1830     1.3670 hn         1 WSA       0.368300
     48 HH32        -3.2690    -0.2130     1.5920 hn         1 WSA       0.368300
     49 HNS         -1.4830    -2.4150     1.4320 hn         1 WSA       0.374500
     50 H5'1         1.5540    -2.7960     1.6660 h1         1 WSA       0.051700
     51 H5'2         2.3640    -4.3670     1.5280 h1         1 WSA       0.051700
     52 H4           3.5800    -3.5850    -0.4870 h1         1 WSA       0.118700
     53 H3           4.3020    -2.9930     2.0980 h1         1 WSA       0.056700
     54 HO3          6.0880    -1.7930     0.9310 ho         1 WSA       0.426000
     55 H2           3.0080    -0.9730     2.1950 h1         1 WSA       0.047700
     56 HO2          4.9780    -0.1650     2.7900 ho         1 WSA       0.418000
     57 H1           4.0890    -0.1410    -0.5330 h2         1 WSA       0.128700
     58 H8           0.8710    -0.3560     1.5360 h5         1 WSA       0.059800
     59 H6           3.4480     3.6290    -2.7560 h5         1 WSA       0.049100
     60 HN61        -1.0930     3.8460    -0.1200 hn         1 WSA       0.454300
     61 HN62        -0.5200     4.9940    -1.2710 hn         1 WSA       0.454300
@<TRIPOS>BOND
     1     1     2 ar  
     2     1     6 ar  
     3     1     9 1   
     4     2     3 ar  
     5     2    38 1   
     6     3     4 ar  
     7     3    39 1   
     8     4     5 ar  
     9     4    40 1   
    10     5     6 ar  
    11     5    41 1   
    12     6     7 1   
    13     7     8 1   
    14     7    42 1   
    15     8     9 2   
    16     8    43 1   
    17     9    10 1   
    18    10    11 1   
    19    10    44 1   
    20    10    45 1   
    21    11    12 1   
    22    11    13 1   
    23    11    46 1   
    24    12    47 1   
    25    12    48 1   
    26    13    14 2   
    27    13    15 1   
    28    15    16 1   
    29    15    49 1   
    30    16    17 2   
    31    16    18 2   
    32    16    19 1   
    33    19    20 1   
    34    20    21 1   
    35    20    50 1   
    36    20    51 1   
    37    21    22 1   
    38    21    23 1   
    39    21    52 1   
    40    22    27 1   
    41    23    24 1   
    42    23    25 1   
    43    23    53 1   
    44    24    54 1   
    45    25    26 1   
    46    25    27 1   
    47    25    55 1   
    48    26    56 1   
    49    27    28 1   
    50    27    57 1   
    51    28    29 1   
    52    28    32 1   
    53    29    30 2   
    54    29    58 1   
    55    30    31 1   
    56    31    32 ar  
    57    31    36 ar  
    58    32    33 ar  
    59    33    34 ar  
    60    34    35 ar  
    61    34    59 1   
    62    35    36 ar  
    63    36    37 1   
    64    37    60 1   
    65    37    61 1   
@<TRIPOS>SUBSTRUCTURE
     1 WSA         1 TEMP              0 ****  ****    0 ROOT
