@<TRIPOS>MOLECULE
WSA
   61    65     1     0     0
SMALL
No Charge or Current Charge


@<TRIPOS>ATOM
      1 CD2         -3.0100     2.0720     0.0790 ca         1 WSA      -0.099800
      2 CE3         -2.4300     2.1380     1.3540 ca         1 WSA      -0.094000
      3 CZ3         -2.8230     3.2000     2.1970 ca         1 WSA      -0.141000
      4 CH2         -3.7710     4.1550     1.7550 ca         1 WSA      -0.094000
      5 CZ2         -4.3330     4.0580     0.4630 ca         1 WSA      -0.123000
      6 CE2         -3.9220     2.9940    -0.3500 ca         1 WSA      -0.050200
      7 N11         -4.3090     2.6850    -1.6410 na         1 WSA      -0.220700
      8 CD1         -3.6330     1.5290    -2.0850 cc         1 WSA      -0.147100
      9 CG          -2.8290     1.1440    -1.0170 cd         1 WSA      -0.154400
     10 CB          -1.9000    -0.0480    -1.0230 c3         1 WSA      -0.026200
     11 CA          -2.6010    -1.3750    -0.6320 c3         1 WSA       0.089500
     12 NH3         -3.1720    -1.2620     0.7640 n8         1 WSA      -1.033200
     13 C           -1.6570    -2.6040    -0.8970 c          1 WSA       0.629100
     14 O           -1.1900    -2.8530    -1.9980 o          1 WSA      -0.521100
     15 NS          -1.4070    -3.3580     0.2010 ns         1 WSA      -0.626300
     16 S           -0.4270    -4.6810     0.3290 s6         1 WSA       1.444500
     17 O1S         -0.3760    -5.0590     1.7440 o          1 WSA      -0.545000
     18 O2S         -0.8060    -5.6500    -0.7050 o          1 WSA      -0.545000
     19 O5           0.9890    -3.9740    -0.1050 os         1 WSA      -0.547700
     20 C5           1.7100    -3.2660     0.9190 c3         1 WSA       0.190600
     21 C4           2.8260    -2.4420     0.2250 c5         1 WSA       0.162300
     22 O4           2.2490    -1.1900    -0.2540 os         1 WSA      -0.425000
     23 C3           4.0040    -2.0300     1.1760 c5         1 WSA       0.108300
     24 O3           5.2480    -1.8600     0.4780 oh         1 WSA      -0.698000
     25 C2           3.4820    -0.6630     1.6940 c5         1 WSA       0.082300
     26 O2           4.5300     0.1130     2.3090 oh         1 WSA      -0.691000
     27 C1           2.9510    -0.0780     0.3440 c5         1 WSA       0.312300
     28 N9           2.0630     1.0860     0.4120 na         1 WSA      -0.284300
     29 C8           1.7780     1.8320     1.5620 cc         1 WSA       0.404700
     30 N7           0.9740     2.8750     1.2880 nd         1 WSA      -0.574100
     31 C7           0.7570     2.7580    -0.0890 ca         1 WSA      -0.104600
     32 C9           1.4110     1.6810    -0.6320 ca         1 WSA       0.152500
     33 N3           1.3400     1.3850    -1.9450 nb         1 WSA      -0.217000
     34 C10          0.5730     2.2140    -2.6930 ca         1 WSA       0.190900
     35 N1          -0.1130     3.2980    -2.2580 nb         1 WSA      -0.304000
     36 C6          -0.0160     3.5670    -0.9470 ca         1 WSA       0.455900
     37 N6          -0.7040     4.6510    -0.5050 nv         1 WSA      -1.063900
     38 HE3         -1.6940     1.4080     1.6800 ha         1 WSA       0.130000
     39 HZ3         -2.3920     3.2860     3.1920 ha         1 WSA       0.113000
     40 HH2         -4.0670     4.9690     2.4130 ha         1 WSA       0.113000
     41 HZ2         -5.0600     4.7870     0.1120 ha         1 WSA       0.115000
     42 HN11        -4.9820     3.2160    -2.1860 hn         1 WSA       0.353000
     43 HD1         -3.7700     1.0970    -3.0720 h4         1 WSA       0.218000
     44 HB1         -1.4680    -0.1550    -2.0260 hc         1 WSA       0.072200
     45 HB2         -1.0490     0.1250    -0.3520 hc         1 WSA       0.072200
     46 HA          -3.4480    -1.5230    -1.3160 h1         1 WSA       0.074700
     47 HH31        -2.4410    -0.9280     1.4030 hn         1 WSA       0.423500
     48 HH32        -3.8300    -0.4710     0.7660 hn         1 WSA       0.423500
     49 HNS         -1.8630    -3.1280     1.0660 hn         1 WSA       0.374500
     50 H5'1         1.0580    -2.5840     1.4820 h1         1 WSA       0.051700
     51 H5'2         2.1630    -3.9750     1.6250 h1         1 WSA       0.051700
     52 H4           3.2050    -3.0220    -0.6270 h1         1 WSA       0.118700
     53 H3           4.1290    -2.7490     1.9990 h1         1 WSA       0.056700
     54 HO3          5.7130    -1.1330     0.9600 ho         1 WSA       0.525000
     55 H2           2.6500    -0.8080     2.3980 h1         1 WSA       0.047700
     56 HO2          4.5670    -0.1320     3.2650 ho         1 WSA       0.517000
     57 H1           3.7940     0.2130    -0.2960 h2         1 WSA       0.128700
     58 H8           2.1790     1.5830     2.5370 h5         1 WSA       0.059800
     59 H6           0.5030     1.9850    -3.7550 h5         1 WSA       0.049100
     60 HN61        -0.8610     4.6590     0.4980 hn         1 WSA       0.509500
     61 HN62        -1.5110     4.9220    -1.0560 hn         1 WSA       0.509500
@<TRIPOS>BOND
     1     1     2 ar  
     2     1     6 ar  
     3     1     9 1   
     4     2     3 ar  
     5     2    38 1   
     6     3     4 ar  
     7     3    39 1   
     8     4     5 ar  
     9     4    40 1   
    10     5     6 ar  
    11     5    41 1   
    12     6     7 1   
    13     7     8 1   
    14     7    42 1   
    15     8     9 2   
    16     8    43 1   
    17     9    10 1   
    18    10    11 1   
    19    10    44 1   
    20    10    45 1   
    21    11    12 1   
    22    11    13 1   
    23    11    46 1   
    24    12    47 1   
    25    12    48 1   
    26    13    14 2   
    27    13    15 1   
    28    15    16 1   
    29    15    49 1   
    30    16    17 2   
    31    16    18 2   
    32    16    19 1   
    33    19    20 1   
    34    20    21 1   
    35    20    50 1   
    36    20    51 1   
    37    21    22 1   
    38    21    23 1   
    39    21    52 1   
    40    22    27 1   
    41    23    24 1   
    42    23    25 1   
    43    23    53 1   
    44    24    54 1   
    45    25    26 1   
    46    25    27 1   
    47    25    55 1   
    48    26    56 1   
    49    27    28 1   
    50    27    57 1   
    51    28    29 1   
    52    28    32 1   
    53    29    30 2   
    54    29    58 1   
    55    30    31 1   
    56    31    32 ar  
    57    31    36 ar  
    58    32    33 ar  
    59    33    34 ar  
    60    34    35 ar  
    61    34    59 1   
    62    35    36 ar  
    63    36    37 1   
    64    37    60 1   
    65    37    61 1   
@<TRIPOS>SUBSTRUCTURE
     1 WSA         1 TEMP              0 ****  ****    0 ROOT
