@<TRIPOS>MOLECULE
WSD
   30    31     1     0     0
SMALL
abcg2


@<TRIPOS>ATOM
      1 O4A         -1.6720    -2.7320     0.1760 o          1 WSD      -0.523000
      2 C04         -1.7350    -1.5160     0.0850 c          1 WSD       0.623200
      3 C4A         -0.6520    -0.5890     0.0300 cc         1 WSD      -0.230600
      4 N05          0.6250    -1.0420    -0.0210 ne         1 WSD      -0.432300
      5 N03         -2.9870    -0.8950     0.0270 ns         1 WSD      -0.456400
      6 C02         -3.1660     0.4400    -0.1150 cc         1 WSD       0.782800
      7 N02         -4.4120     0.8950    -0.1880 nv         1 WSD      -1.053200
      8 N01         -2.1670     1.2940    -0.1830 nd         1 WSD      -0.783300
      9 C8A         -0.9320     0.7820    -0.0980 cd         1 WSD       0.477600
     10 N08          0.0960     1.6190    -0.1940 nu         1 WSD      -0.786200
     11 C07          1.4870     1.2800     0.1270 c6         1 WSD       0.212900
     12 C12          2.3590     2.0750    -0.8450 c3         1 WSD      -0.105100
     13 C11          1.7840     1.6860     1.5740 c3         1 WSD      -0.105100
     14 C06          1.6230    -0.2360    -0.0220 cf         1 WSD       0.240300
     15 C09          2.9570    -0.8820    -0.0420 c          1 WSD       0.515800
     16 O09          3.9810    -0.2420     0.1170 o          1 WSD      -0.549100
     17 C10          3.0000    -2.3770    -0.2310 c3         1 WSD      -0.179100
     18 H021        -5.2140     0.2950    -0.1110 hn         1 WSD       0.514000
     19 H022        -4.5670     1.8860    -0.2670 hn         1 WSD       0.514000
     20 H08         -0.1220     2.6010    -0.2910 hn         1 WSD       0.500000
     21 H121         2.0990     3.1340    -0.7810 hc         1 WSD       0.050533
     22 H122         3.4140     1.9830    -0.6070 hc         1 WSD       0.050533
     23 H123         2.1990     1.7510    -1.8730 hc         1 WSD       0.050533
     24 H111         1.1470     1.1420     2.2730 hc         1 WSD       0.050533
     25 H112         2.8240     1.4890     1.8290 hc         1 WSD       0.050533
     26 H113         1.6000     2.7540     1.7080 hc         1 WSD       0.050533
     27 H101         2.4030    -2.6960    -1.0840 hc         1 WSD       0.065033
     28 H102         4.0300    -2.6970    -0.3700 hc         1 WSD       0.065033
     29 H103         2.5920    -2.8830     0.6450 hc         1 WSD       0.065033
     30 H03         -3.7950    -1.5030     0.0730 hn         1 WSD       0.325500
@<TRIPOS>BOND
     1     1     2 2   
     2     2     3 1   
     3     2     5 1   
     4     3     4 1   
     5     3     9 2   
     6     4    14 2   
     7     5     6 1   
     8     5    30 1   
     9     6     7 1   
    10     6     8 2   
    11     7    18 1   
    12     7    19 1   
    13     8     9 1   
    14     9    10 1   
    15    10    11 1   
    16    10    20 1   
    17    11    12 1   
    18    11    13 1   
    19    11    14 1   
    20    12    21 1   
    21    12    22 1   
    22    12    23 1   
    23    13    24 1   
    24    13    25 1   
    25    13    26 1   
    26    14    15 1   
    27    15    16 2   
    28    15    17 1   
    29    17    27 1   
    30    17    28 1   
    31    17    29 1   
@<TRIPOS>SUBSTRUCTURE
     1 WSD         1 TEMP              0 ****  ****    0 ROOT
