@<TRIPOS>MOLECULE
WSD
   30    31     1     0     0
SMALL
No Charge or Current Charge


@<TRIPOS>ATOM
      1 O4A         -1.7870    -2.7400    -0.4070 o          1 WSD      -0.523000
      2 C04         -1.8670    -1.5260    -0.2880 c          1 WSD       0.623200
      3 C4A         -0.7280    -0.6100    -0.1000 cc         1 WSD      -0.230600
      4 N05          0.5840    -1.0940    -0.0390 ne         1 WSD      -0.432300
      5 N03         -3.0510    -0.8920    -0.3220 ns         1 WSD      -0.456400
      6 C02         -3.1710     0.4310    -0.2040 cc         1 WSD       0.782800
      7 N02         -4.3920     0.9150    -0.2560 nv         1 WSD      -1.053200
      8 N01         -2.2260     1.3060    -0.0400 nd         1 WSD      -0.783300
      9 C8A         -0.9760     0.7420     0.0130 cd         1 WSD       0.477600
     10 N08          0.0020     1.6450     0.1860 nu         1 WSD      -0.786200
     11 C07          1.4400     1.2820     0.2110 c6         1 WSD       0.212900
     12 C12          2.1230     2.0100    -0.9820 c3         1 WSD      -0.105100
     13 C11          2.0210     1.8070     1.5550 c3         1 WSD      -0.105100
     14 C06          1.6260    -0.2920     0.0900 cf         1 WSD       0.240300
     15 C09          3.0210    -0.9000     0.1110 c          1 WSD       0.515800
     16 O09          4.0500    -0.2380     0.2170 o          1 WSD      -0.549100
     17 C10          3.1330    -2.4280    -0.0080 c3         1 WSD      -0.179100
     18 H021        -5.1120     0.3410     0.1630 hn         1 WSD       0.514000
     19 H022        -4.4280     1.8910     0.0070 hn         1 WSD       0.514000
     20 H08         -0.3060     2.6130     0.1930 hn         1 WSD       0.500000
     21 H121         1.9380     3.0910    -0.9480 hc         1 WSD       0.050533
     22 H122         3.2090     1.8730    -0.9870 hc         1 WSD       0.050533
     23 H123         1.7380     1.6400    -1.9410 hc         1 WSD       0.050533
     24 H111         1.5730     1.2840     2.4080 hc         1 WSD       0.050533
     25 H112         3.1060     1.6770     1.6210 hc         1 WSD       0.050533
     26 H113         1.8220     2.8780     1.6840 hc         1 WSD       0.050533
     27 H101         2.6220    -2.7560    -0.9200 hc         1 WSD       0.065033
     28 H102         4.1710    -2.7800     0.0180 hc         1 WSD       0.065033
     29 H103         2.5310    -2.8960     0.7800 hc         1 WSD       0.065033
     30 H03         -3.8690    -1.4550    -0.4760 hn         1 WSD       0.325500
@<TRIPOS>BOND
     1     1     2 2   
     2     2     3 1   
     3     2     5 1   
     4     3     4 1   
     5     3     9 2   
     6     4    14 2   
     7     5     6 1   
     8     5    30 1   
     9     6     7 1   
    10     6     8 2   
    11     7    18 1   
    12     7    19 1   
    13     8     9 1   
    14     9    10 1   
    15    10    11 1   
    16    10    20 1   
    17    11    12 1   
    18    11    13 1   
    19    11    14 1   
    20    12    21 1   
    21    12    22 1   
    22    12    23 1   
    23    13    24 1   
    24    13    25 1   
    25    13    26 1   
    26    14    15 1   
    27    15    16 2   
    28    15    17 1   
    29    17    27 1   
    30    17    28 1   
    31    17    29 1   
@<TRIPOS>SUBSTRUCTURE
     1 WSD         1 TEMP              0 ****  ****    0 ROOT
