@<TRIPOS>MOLECULE
WSF
   85    84     1     0     0
SMALL
abcg2


@<TRIPOS>ATOM
      1 O12        230.8090   273.8200   241.2620 o          1 WSF      -0.815500
      2 P          230.5700   273.5180   239.8210 p5         1 WSF       1.394800
      3 O14        229.3110   272.8550   239.3590 o          1 WSF      -0.815500
      4 O13        230.7810   274.9230   239.0450 os         1 WSF      -0.603400
      5 C11        230.5210   275.0770   237.6380 c3         1 WSF       0.219600
      6 C12        231.7740   275.0200   236.7760 c3         1 WSF      -0.093400
      7 C13        232.8550   276.0910   237.0170 c3         1 WSF      -0.040700
      8 C14        232.2850   277.5110   237.0120 c3         1 WSF      -0.085100
      9 C15        233.6850   275.8350   238.2790 c3         1 WSF      -0.085100
     10 O11        231.8530   272.6270   239.3340 os         1 WSF      -0.595400
     11 C1         231.7590   271.7000   238.2600 c3         1 WSF       0.231600
     12 C2         231.3780   270.3210   238.7690 c3         1 WSF       0.131300
     13 O21        232.3890   269.8960   239.7100 os         1 WSF      -0.456100
     14 C21        232.0560   269.6860   240.9950 c          1 WSF       0.604100
     15 O22        230.9340   269.8140   241.4320 o          1 WSF      -0.463000
     16 C22        233.2570   269.2710   241.8050 c3         1 WSF      -0.134400
     17 C23        234.0540   268.1330   241.1620 c3         1 WSF      -0.072400
     18 C24        235.1880   267.6160   242.0420 c3         1 WSF      -0.076400
     19 C25        236.0210   266.5500   241.3320 c3         1 WSF      -0.077400
     20 C26        237.1210   265.9490   242.2040 c3         1 WSF      -0.074400
     21 C27        238.0150   264.9420   241.4740 c3         1 WSF      -0.074400
     22 C28        238.9150   265.5750   240.4130 c3         1 WSF      -0.090100
     23 C3         231.3400   269.3110   237.6480 c3         1 WSF       0.155600
     24 O31        230.8030   268.0880   238.1850 os         1 WSF      -0.438100
     25 C31        230.8630   266.9980   237.4040 c          1 WSF       0.591100
     26 O32        231.3370   267.0130   236.2890 o          1 WSF      -0.506000
     27 C32        230.2650   265.7920   238.0800 c3         1 WSF      -0.134400
     28 C33        230.8780   265.4860   239.4540 c3         1 WSF      -0.063400
     29 C34        232.3850   265.2320   239.4300 c3         1 WSF      -0.081400
     30 C35        232.8270   264.0120   238.6240 c3         1 WSF      -0.077400
     31 C36        234.3220   263.7360   238.7670 c3         1 WSF      -0.077400
     32 C37        234.7970   262.5350   237.9510 c3         1 WSF      -0.072400
     33 C38        236.2620   262.1570   238.1840 c3         1 WSF      -0.072400
     34 C39        237.2710   263.2250   237.7640 c3         1 WSF      -0.079400
     35 C3A        238.7160   262.7550   237.9080 c3         1 WSF      -0.089100
     36 H2         229.8160   274.3080   237.3160 h1         1 WSF       0.028200
     37 H3         230.0280   276.0440   237.5280 h1         1 WSF       0.028200
     38 H4         232.2320   274.0320   236.8620 hc         1 WSF       0.028200
     39 H5         231.4250   275.1100   235.7410 hc         1 WSF       0.028200
     40 H6         233.5390   276.0130   236.1650 hc         1 WSF       0.011700
     41 H7         233.0910   278.2480   237.0410 hc         1 WSF       0.032700
     42 H8         231.6890   277.6980   236.1150 hc         1 WSF       0.032700
     43 H9         231.6470   277.6860   237.8820 hc         1 WSF       0.032700
     44 H10        234.5200   276.5380   238.3360 hc         1 WSF       0.032700
     45 H11        233.0790   275.9470   239.1780 hc         1 WSF       0.032700
     46 H12        234.0950   274.8220   238.2780 hc         1 WSF       0.032700
     47 H13        232.7410   271.6650   237.7830 h1         1 WSF       0.027200
     48 H14        231.0210   272.0140   237.5210 h1         1 WSF       0.027200
     49 H15        230.4190   270.3690   239.2790 h1         1 WSF       0.121700
     50 H16        233.8940   270.1530   241.9230 hc         1 WSF       0.071200
     51 H17        232.8980   268.9870   242.7940 hc         1 WSF       0.071200
     52 H18        233.3750   267.3100   240.9350 hc         1 WSF       0.047700
     53 H19        234.4610   268.4720   240.2070 hc         1 WSF       0.047700
     54 H20        235.8360   268.4500   242.3350 hc         1 WSF       0.036700
     55 H21        234.7720   267.2050   242.9690 hc         1 WSF       0.036700
     56 H22        235.3620   265.7460   240.9860 hc         1 WSF       0.038200
     57 H23        236.4580   266.9930   240.4320 hc         1 WSF       0.038200
     58 H24        237.7460   266.7550   242.6080 hc         1 WSF       0.035200
     59 H25        236.6560   265.4590   243.0670 hc         1 WSF       0.035200
     60 H26        237.3900   264.1720   241.0100 hc         1 WSF       0.033700
     61 H27        238.6420   264.4280   242.2090 hc         1 WSF       0.033700
     62 H28        239.5730   264.8320   239.9600 hc         1 WSF       0.030700
     63 H29        238.3340   266.0310   239.6100 hc         1 WSF       0.030700
     64 H30        239.5420   266.3550   240.8550 hc         1 WSF       0.030700
     65 H31        232.3390   269.1270   237.2520 h1         1 WSF       0.054700
     66 H32        230.6960   269.6640   236.8410 h1         1 WSF       0.054700
     67 H33        229.1950   265.9840   238.1980 hc         1 WSF       0.066700
     68 H34        230.3770   264.9520   237.3970 hc         1 WSF       0.066700
     69 H35        230.6640   266.3160   240.1300 hc         1 WSF       0.053200
     70 H36        230.3670   264.6080   239.8580 hc         1 WSF       0.053200
     71 H37        232.9020   266.1180   239.0480 hc         1 WSF       0.045200
     72 H38        232.7260   265.1110   240.4630 hc         1 WSF       0.045200
     73 H39        232.2610   263.1340   238.9540 hc         1 WSF       0.037200
     74 H40        232.5870   264.1550   237.5660 hc         1 WSF       0.037200
     75 H41        234.8780   264.6310   238.4720 hc         1 WSF       0.039200
     76 H42        234.5560   263.5680   239.8240 hc         1 WSF       0.039200
     77 H43        234.1670   261.6730   238.1950 hc         1 WSF       0.036200
     78 H44        234.6410   262.7380   236.8850 hc         1 WSF       0.036200
     79 H45        236.4100   261.9250   239.2460 hc         1 WSF       0.032700
     80 H46        236.4810   261.2340   237.6360 hc         1 WSF       0.032700
     81 H47        237.0780   263.5100   236.7230 hc         1 WSF       0.041700
     82 H48        237.1250   264.1280   238.3620 hc         1 WSF       0.041700
     83 H49        239.4230   263.5300   237.6060 hc         1 WSF       0.028700
     84 H50        238.9380   262.4890   238.9440 hc         1 WSF       0.028700
     85 H51        238.9020   261.8710   237.2910 hc         1 WSF       0.028700
@<TRIPOS>BOND
     1     1     2 1   
     2     2     3 1   
     3     2     4 1   
     4     2    10 1   
     5     4     5 1   
     6     5     6 1   
     7     5    36 1   
     8     5    37 1   
     9     6     7 1   
    10     6    38 1   
    11     6    39 1   
    12     7     8 1   
    13     7     9 1   
    14     7    40 1   
    15     8    41 1   
    16     8    42 1   
    17     8    43 1   
    18     9    44 1   
    19     9    45 1   
    20     9    46 1   
    21    10    11 1   
    22    11    12 1   
    23    11    47 1   
    24    11    48 1   
    25    12    13 1   
    26    12    23 1   
    27    12    49 1   
    28    13    14 1   
    29    14    15 2   
    30    14    16 1   
    31    16    17 1   
    32    16    50 1   
    33    16    51 1   
    34    17    18 1   
    35    17    52 1   
    36    17    53 1   
    37    18    19 1   
    38    18    54 1   
    39    18    55 1   
    40    19    20 1   
    41    19    56 1   
    42    19    57 1   
    43    20    21 1   
    44    20    58 1   
    45    20    59 1   
    46    21    22 1   
    47    21    60 1   
    48    21    61 1   
    49    22    62 1   
    50    22    63 1   
    51    22    64 1   
    52    23    24 1   
    53    23    65 1   
    54    23    66 1   
    55    24    25 1   
    56    25    26 2   
    57    25    27 1   
    58    27    28 1   
    59    27    67 1   
    60    27    68 1   
    61    28    29 1   
    62    28    69 1   
    63    28    70 1   
    64    29    30 1   
    65    29    71 1   
    66    29    72 1   
    67    30    31 1   
    68    30    73 1   
    69    30    74 1   
    70    31    32 1   
    71    31    75 1   
    72    31    76 1   
    73    32    33 1   
    74    32    77 1   
    75    32    78 1   
    76    33    34 1   
    77    33    79 1   
    78    33    80 1   
    79    34    35 1   
    80    34    81 1   
    81    34    82 1   
    82    35    83 1   
    83    35    84 1   
    84    35    85 1   
@<TRIPOS>SUBSTRUCTURE
     1 WSF         1 TEMP              0 ****  ****    0 ROOT
