@<TRIPOS>MOLECULE
WSF
   85    84     1     0     0
SMALL
No Charge or Current Charge


@<TRIPOS>ATOM
      1 O12        230.2650   274.1850   241.2080 o          1 WSF      -0.815500
      2 P          230.4360   273.8030   239.7760 p5         1 WSF       1.394800
      3 O14        229.3540   272.8820   239.3230 o          1 WSF      -0.815500
      4 O13        230.5210   275.1260   238.8540 os         1 WSF      -0.603400
      5 C11        230.4320   275.0680   237.4230 c3         1 WSF       0.219600
      6 C12        231.8390   275.2630   236.7940 c3         1 WSF      -0.093400
      7 C13        232.4120   276.7110   236.7920 c3         1 WSF      -0.040700
      8 C14        231.5530   277.6960   235.9650 c3         1 WSF      -0.085100
      9 C15        232.7050   277.2620   238.2060 c3         1 WSF      -0.085100
     10 O11        231.9120   273.1980   239.5360 os         1 WSF      -0.595400
     11 C1         232.1590   272.1770   238.5520 c3         1 WSF       0.231600
     12 C2         231.7580   270.7770   239.1000 c3         1 WSF       0.131300
     13 O21        232.6870   270.4420   240.1640 os         1 WSF      -0.456100
     14 C21        232.2720   269.6420   241.1980 c          1 WSF       0.604100
     15 O22        231.1200   269.2810   241.3890 o          1 WSF      -0.463000
     16 C22        233.4480   269.2280   242.0860 c3         1 WSF      -0.134400
     17 C23        234.0040   267.8600   241.6300 c3         1 WSF      -0.072400
     18 C24        235.2810   267.4170   242.3750 c3         1 WSF      -0.076400
     19 C25        235.8000   266.0440   241.8910 c3         1 WSF      -0.077400
     20 C26        237.1030   265.6000   242.5940 c3         1 WSF      -0.074400
     21 C27        237.5980   264.1930   242.1810 c3         1 WSF      -0.074400
     22 C28        238.0440   264.0780   240.7080 c3         1 WSF      -0.090100
     23 C3         231.8820   269.6900   238.0000 c3         1 WSF       0.155600
     24 O31        231.2210   268.4880   238.4430 os         1 WSF      -0.438100
     25 C31        231.4210   267.3390   237.7240 c          1 WSF       0.591100
     26 O32        232.2300   267.2290   236.8130 o          1 WSF      -0.506000
     27 C32        230.6620   266.1540   238.3310 c3         1 WSF      -0.134400
     28 C33        231.3210   265.6120   239.6270 c3         1 WSF      -0.063400
     29 C34        232.8080   265.2000   239.5080 c3         1 WSF      -0.081400
     30 C35        233.0860   264.0250   238.5460 c3         1 WSF      -0.077400
     31 C36        234.5770   263.6250   238.5340 c3         1 WSF      -0.077400
     32 C37        234.8850   262.4370   237.5930 c3         1 WSF      -0.072400
     33 C38        236.3630   261.9780   237.6130 c3         1 WSF      -0.072400
     34 C39        237.3590   262.9960   237.0090 c3         1 WSF      -0.079400
     35 C3A        238.8130   262.4880   237.0130 c3         1 WSF      -0.089100
     36 H2         230.0390   274.0970   237.0970 h1         1 WSF       0.028200
     37 H3         229.7420   275.8340   237.0500 h1         1 WSF       0.028200
     38 H4         232.5610   274.6020   237.2840 hc         1 WSF       0.028200
     39 H5         231.7860   274.9210   235.7530 hc         1 WSF       0.028200
     40 H6         233.3820   276.6480   236.2820 hc         1 WSF       0.011700
     41 H7         232.0670   278.6600   235.8620 hc         1 WSF       0.032700
     42 H8         231.3700   277.3030   234.9580 hc         1 WSF       0.032700
     43 H9         230.5850   277.8810   236.4460 hc         1 WSF       0.032700
     44 H10        233.2670   278.2010   238.1430 hc         1 WSF       0.032700
     45 H11        231.7770   277.4610   238.7540 hc         1 WSF       0.032700
     46 H12        233.3030   276.5480   238.7850 hc         1 WSF       0.032700
     47 H13        233.2220   272.1660   238.2770 h1         1 WSF       0.027200
     48 H14        231.5870   272.3780   237.6370 h1         1 WSF       0.027200
     49 H15        230.7190   270.8130   239.4500 h1         1 WSF       0.121700
     50 H16        234.2530   269.9650   241.9830 hc         1 WSF       0.071200
     51 H17        233.1160   269.1550   243.1280 hc         1 WSF       0.071200
     52 H18        233.2260   267.0990   241.7690 hc         1 WSF       0.047700
     53 H19        234.2210   267.9060   240.5550 hc         1 WSF       0.047700
     54 H20        236.0640   268.1710   242.2290 hc         1 WSF       0.036700
     55 H21        235.0750   267.3690   243.4520 hc         1 WSF       0.036700
     56 H22        235.0250   265.2870   242.0640 hc         1 WSF       0.038200
     57 H23        235.9650   266.0920   240.8080 hc         1 WSF       0.038200
     58 H24        237.8930   266.3340   242.3950 hc         1 WSF       0.035200
     59 H25        236.9370   265.6030   243.6780 hc         1 WSF       0.035200
     60 H26        236.8080   263.4570   242.3760 hc         1 WSF       0.033700
     61 H27        238.4450   263.9190   242.8220 hc         1 WSF       0.033700
     62 H28        238.4350   263.0740   240.5060 hc         1 WSF       0.030700
     63 H29        237.2050   264.2560   240.0270 hc         1 WSF       0.030700
     64 H30        238.8340   264.8050   240.4840 hc         1 WSF       0.030700
     65 H31        232.9480   269.5090   237.8060 h1         1 WSF       0.054700
     66 H32        231.4230   270.0500   237.0700 h1         1 WSF       0.054700
     67 H33        229.6670   266.5050   238.6290 hc         1 WSF       0.066700
     68 H34        230.5800   265.3500   237.5920 hc         1 WSF       0.066700
     69 H35        231.2390   266.3810   240.4050 hc         1 WSF       0.053200
     70 H36        230.7400   264.7530   239.9870 hc         1 WSF       0.053200
     71 H37        233.4060   266.0660   239.2010 hc         1 WSF       0.045200
     72 H38        233.1600   264.9190   240.5070 hc         1 WSF       0.045200
     73 H39        232.4800   263.1610   238.8450 hc         1 WSF       0.037200
     74 H40        232.7800   264.2990   237.5290 hc         1 WSF       0.037200
     75 H41        235.1710   264.4960   238.2330 hc         1 WSF       0.039200
     76 H42        234.8860   263.3620   239.5530 hc         1 WSF       0.039200
     77 H43        234.2550   261.5870   237.8840 hc         1 WSF       0.036200
     78 H44        234.6010   262.7000   236.5660 hc         1 WSF       0.036200
     79 H45        236.6550   261.7500   238.6460 hc         1 WSF       0.032700
     80 H46        236.4390   261.0380   237.0520 hc         1 WSF       0.032700
     81 H47        237.0640   263.2250   235.9780 hc         1 WSF       0.041700
     82 H48        237.3190   263.9380   237.5690 hc         1 WSF       0.041700
     83 H49        239.4820   263.2400   236.5780 hc         1 WSF       0.028700
     84 H50        239.1490   262.2810   238.0360 hc         1 WSF       0.028700
     85 H51        238.9040   261.5660   236.4250 hc         1 WSF       0.028700
@<TRIPOS>BOND
     1     1     2 1   
     2     2     3 1   
     3     2     4 1   
     4     2    10 1   
     5     4     5 1   
     6     5     6 1   
     7     5    36 1   
     8     5    37 1   
     9     6     7 1   
    10     6    38 1   
    11     6    39 1   
    12     7     8 1   
    13     7     9 1   
    14     7    40 1   
    15     8    41 1   
    16     8    42 1   
    17     8    43 1   
    18     9    44 1   
    19     9    45 1   
    20     9    46 1   
    21    10    11 1   
    22    11    12 1   
    23    11    47 1   
    24    11    48 1   
    25    12    13 1   
    26    12    23 1   
    27    12    49 1   
    28    13    14 1   
    29    14    15 2   
    30    14    16 1   
    31    16    17 1   
    32    16    50 1   
    33    16    51 1   
    34    17    18 1   
    35    17    52 1   
    36    17    53 1   
    37    18    19 1   
    38    18    54 1   
    39    18    55 1   
    40    19    20 1   
    41    19    56 1   
    42    19    57 1   
    43    20    21 1   
    44    20    58 1   
    45    20    59 1   
    46    21    22 1   
    47    21    60 1   
    48    21    61 1   
    49    22    62 1   
    50    22    63 1   
    51    22    64 1   
    52    23    24 1   
    53    23    65 1   
    54    23    66 1   
    55    24    25 1   
    56    25    26 2   
    57    25    27 1   
    58    27    28 1   
    59    27    67 1   
    60    27    68 1   
    61    28    29 1   
    62    28    69 1   
    63    28    70 1   
    64    29    30 1   
    65    29    71 1   
    66    29    72 1   
    67    30    31 1   
    68    30    73 1   
    69    30    74 1   
    70    31    32 1   
    71    31    75 1   
    72    31    76 1   
    73    32    33 1   
    74    32    77 1   
    75    32    78 1   
    76    33    34 1   
    77    33    79 1   
    78    33    80 1   
    79    34    35 1   
    80    34    81 1   
    81    34    82 1   
    82    35    83 1   
    83    35    84 1   
    84    35    85 1   
@<TRIPOS>SUBSTRUCTURE
     1 WSF         1 TEMP              0 ****  ****    0 ROOT
