@<TRIPOS>MOLECULE
WSG
   29    30     1     0     0
SMALL
No Charge or Current Charge


@<TRIPOS>ATOM
      1 N1          -0.4540     9.0300    -7.8990 na         1 WSG       0.131800
      2 N3           1.4960    10.0670   -10.6870 ns         1 WSG      -0.366100
      3 C4           0.6570     9.8540    -9.5920 cc         1 WSG      -0.072400
      4 C5           2.3560     9.1790   -11.3170 c          1 WSG       0.618700
      5 C6           3.1430     9.7230   -12.4960 ca         1 WSG      -0.167600
      6 C7           3.0180    11.0640   -12.9430 ca         1 WSG      -0.045000
      7 C8           3.7690    11.5230   -14.0400 ca         1 WSG      -0.163000
      8 C10          4.7840     9.3310   -14.2770 ca         1 WSG      -0.163000
      9 C1          -0.0440     7.9980    -5.6430 c3         1 WSG      -0.113100
     10 C2          -0.9780     8.1230    -6.8620 c3         1 WSG       0.089600
     11 N2          -0.8810    10.3500    -7.9770 nd         1 WSG      -0.510800
     12 C3          -0.1920    10.8070    -9.0020 cc         1 WSG       0.204900
     13 C9           4.0380     8.8650   -13.1810 ca         1 WSG      -0.045000
     14 C11          4.6480    10.6570   -14.7030 ca         1 WSG       0.195000
     15 F1           5.3660    11.1030   -15.7570 f          1 WSG      -0.173000
     16 O1           2.4810     8.0170   -10.9500 o          1 WSG      -0.596100
     17 C12          0.4890     8.7040    -8.8800 cd         1 WSG      -0.173000
     18 H1           1.4950    10.9920   -11.0960 hn         1 WSG       0.324500
     19 H2           2.3480    11.7680   -12.4560 ha         1 WSG       0.128500
     20 H3           3.6690    12.5510   -14.3780 ha         1 WSG       0.137000
     21 H4           5.4680     8.6640   -14.7960 ha         1 WSG       0.137000
     22 H5          -0.4740     7.3140    -4.9020 hc         1 WSG       0.049700
     23 H6           0.9360     7.6080    -5.9440 hc         1 WSG       0.049700
     24 H7           0.1030     8.9750    -5.1670 hc         1 WSG       0.049700
     25 H8          -1.9580     8.4900    -6.5340 h1         1 WSG       0.063700
     26 H9          -1.1250     7.1330    -7.3110 h1         1 WSG       0.063700
     27 H10         -0.3260    11.8380    -9.3010 h4         1 WSG       0.035100
     28 H11          4.1590     7.8300   -12.8660 ha         1 WSG       0.128500
     29 H12          0.9340     7.7210    -8.9710 h4         1 WSG       0.180000
@<TRIPOS>BOND
     1     1    10 1   
     2     1    11 1   
     3     1    17 1   
     4     2     3 1   
     5     2     4 1   
     6     2    18 1   
     7     3    12 1   
     8     3    17 2   
     9     4     5 1   
    10     4    16 2   
    11     5     6 ar  
    12     5    13 ar  
    13     6     7 ar  
    14     6    19 1   
    15     7    14 ar  
    16     7    20 1   
    17     8    13 ar  
    18     8    14 ar  
    19     8    21 1   
    20     9    10 1   
    21     9    22 1   
    22     9    23 1   
    23     9    24 1   
    24    10    25 1   
    25    10    26 1   
    26    11    12 2   
    27    12    27 1   
    28    13    28 1   
    29    14    15 1   
    30    17    29 1   
@<TRIPOS>SUBSTRUCTURE
     1 WSG         1 TEMP              0 ****  ****    0 ROOT
