@<TRIPOS>MOLECULE
WSG
   29    30     1     0     0
SMALL
abcg2


@<TRIPOS>ATOM
      1 N1          -0.3690     8.9910    -7.9370 na         1 WSG       0.131800
      2 N3           1.6260    10.1560   -10.6320 ns         1 WSG      -0.366100
      3 C4           0.8120     9.8820    -9.5370 cc         1 WSG      -0.072400
      4 C5           2.2620     9.2310   -11.3820 c          1 WSG       0.618700
      5 C6           3.0570     9.7550   -12.5290 ca         1 WSG      -0.167600
      6 C7           2.7870    10.9740   -13.1500 ca         1 WSG      -0.045000
      7 C8           3.5460    11.4080   -14.2250 ca         1 WSG      -0.163000
      8 C10          4.8710     9.3880   -14.0850 ca         1 WSG      -0.163000
      9 C1          -0.1450     8.0230    -5.6790 c3         1 WSG      -0.113100
     10 C2          -0.9370     8.0690    -6.9740 c3         1 WSG       0.089600
     11 N2          -0.5530    10.2930    -7.8020 nd         1 WSG      -0.510800
     12 C3           0.1510    10.8550    -8.7670 cc         1 WSG       0.204900
     13 C9           4.0960     8.9650   -13.0180 ca         1 WSG      -0.045000
     14 C11          4.5810    10.6070   -14.6690 ca         1 WSG       0.195000
     15 F1           5.3220    11.0230   -15.7030 f          1 WSG      -0.173000
     16 O1           2.2060     8.0350   -11.1370 o          1 WSG      -0.596100
     17 C12          0.4520     8.6790    -8.9620 cd         1 WSG      -0.173000
     18 H1           1.7860    11.1320   -10.8220 hn         1 WSG       0.324500
     19 H2           1.9650    11.5990   -12.8270 ha         1 WSG       0.128500
     20 H3           3.3300    12.3510   -14.7090 ha         1 WSG       0.137000
     21 H4           5.6840     8.7800   -14.4580 ha         1 WSG       0.137000
     22 H5          -0.6140     7.3300    -4.9830 hc         1 WSG       0.049700
     23 H6           0.8770     7.6870    -5.8540 hc         1 WSG       0.049700
     24 H7          -0.1090     9.0040    -5.2060 hc         1 WSG       0.049700
     25 H8          -1.9660     8.3750    -6.7880 h1         1 WSG       0.063700
     26 H9          -0.9700     7.0870    -7.4430 h1         1 WSG       0.063700
     27 H10          0.1650    11.9270    -8.8960 h4         1 WSG       0.035100
     28 H11          4.3100     8.0100   -12.5580 ha         1 WSG       0.128500
     29 H12          0.7020     7.6610    -9.1980 h4         1 WSG       0.180000
@<TRIPOS>BOND
     1     1    10 1   
     2     1    11 1   
     3     1    17 1   
     4     2     3 1   
     5     2     4 1   
     6     2    18 1   
     7     3    12 1   
     8     3    17 2   
     9     4     5 1   
    10     4    16 2   
    11     5     6 ar  
    12     5    13 ar  
    13     6     7 ar  
    14     6    19 1   
    15     7    14 ar  
    16     7    20 1   
    17     8    13 ar  
    18     8    14 ar  
    19     8    21 1   
    20     9    10 1   
    21     9    22 1   
    22     9    23 1   
    23     9    24 1   
    24    10    25 1   
    25    10    26 1   
    26    11    12 2   
    27    12    27 1   
    28    13    28 1   
    29    14    15 1   
    30    17    29 1   
@<TRIPOS>SUBSTRUCTURE
     1 WSG         1 TEMP              0 ****  ****    0 ROOT
