@<TRIPOS>MOLECULE
WSH
   53    57     1     0     0
SMALL
No Charge or Current Charge


@<TRIPOS>ATOM
      1 C17          5.6360    -3.5850     0.3730 ca         1 WSH      -0.092000
      2 C10         -6.9930    -0.8470     1.7320 ca         1 WSH      -0.097000
      3 C18          5.3950    -2.4550     1.1700 ca         1 WSH      -0.119500
      4 C16          4.7240    -3.9340    -0.6350 ca         1 WSH      -0.119500
      5 C22          0.7850    -0.3030     3.1990 ca         1 WSH      -0.111000
      6 C11         -6.0610     0.1170     2.1540 ca         1 WSH      -0.116500
      7 C9          -6.9830    -1.2940     0.3990 ca         1 WSH      -0.116500
      8 C23          0.4990     1.0640     3.0750 ca         1 WSH      -0.083000
      9 C19          4.2420    -1.6780     0.9660 ca         1 WSH      -0.074000
     10 C15          3.5700    -3.1590    -0.8430 ca         1 WSH      -0.074000
     11 C21          1.3050    -1.0130     2.1050 ca         1 WSH      -0.067000
     12 C12         -5.1220     0.6340     1.2450 ca         1 WSH      -0.084000
     13 C8          -6.0440    -0.7770    -0.5100 ca         1 WSH      -0.084000
     14 C24          0.7430     1.7220     1.8600 ca         1 WSH      -0.122000
     15 C14          3.3020    -2.0300    -0.0320 ca         1 WSH      -0.151900
     16 C20          1.5580    -0.3630     0.8770 ca         1 WSH      -0.184900
     17 C7          -5.1090     0.1920    -0.0930 ca         1 WSH      -0.102300
     18 C25          1.2850     1.0240     0.7620 ca         1 WSH       0.014800
     19 C3           1.2330     1.1720    -1.6740 cc         1 WSH       0.358800
     20 C2           2.1890     2.8730    -0.6200 cc         1 WSH       0.411800
     21 C13          2.0900    -1.1740    -0.2710 ce         1 WSH       0.547500
     22 C4           0.6000    -0.1920    -1.9280 c3         1 WSH       0.287600
     23 C6          -4.0900     0.7540    -1.0750 c3         1 WSH       0.231900
     24 N2           1.6770     2.0290    -2.5850 nd         1 WSH      -0.319000
     25 N1           2.2690     3.0930    -1.9250 nd         1 WSH      -0.355000
     26 N4           1.4410    -1.2750    -1.3950 n2         1 WSH      -0.576900
     27 N5           1.5150     1.6920    -0.4420 na         1 WSH      -0.281800
     28 N3          -0.7260    -0.3510    -1.3500 ns         1 WSH      -0.519900
     29 O1          -1.8060     1.2940    -2.5200 o          1 WSH      -0.524000
     30 O2          -2.8540     0.0430    -0.9000 os         1 WSH      -0.459100
     31 H17          6.5290    -4.1850     0.5320 ha         1 WSH       0.115000
     32 H18          6.1060    -2.1760     1.9450 ha         1 WSH       0.117000
     33 H16          4.9120    -4.8040    -1.2600 ha         1 WSH       0.117000
     34 H11         -6.0670     0.4620     3.1860 ha         1 WSH       0.115000
     35 H9          -7.7020    -2.0410     0.0710 ha         1 WSH       0.115000
     36 H19          4.0880    -0.7970     1.5850 ha         1 WSH       0.126000
     37 H15          2.8790    -3.4480    -1.6330 ha         1 WSH       0.126000
     38 H22          0.5930    -0.8160     4.1390 ha         1 WSH       0.126000
     39 H23          0.0830     1.6120     3.9180 ha         1 WSH       0.125000
     40 H21          1.5060    -2.0780     2.2110 ha         1 WSH       0.134000
     41 H12         -4.4020     1.3780     1.5810 ha         1 WSH       0.115500
     42 H8          -6.0420    -1.1310    -1.5390 ha         1 WSH       0.115500
     43 H24          0.4950     2.7770     1.7740 ha         1 WSH       0.131000
     44 H61C        -4.4630     0.6420    -2.1020 h1         1 WSH       0.058700
     45 H62C        -3.9520     1.8270    -0.8820 h1         1 WSH       0.058700
     46 H4           0.4870    -0.3100    -3.0140 h2         1 WSH       0.135700
     47 H3          -0.8630    -1.0390    -0.6240 hn         1 WSH       0.333500
     48 C1           2.7960     3.7430     0.4450 c3         1 WSH      -0.125400
     49 C5          -1.8020     0.4140    -1.6750 c          1 WSH       0.643100
     50 H10         -7.7200    -1.2470     2.4350 ha         1 WSH       0.113000
     51 H11C         2.0470     4.4240     0.8640 hc         1 WSH       0.062367
     52 H12C         3.2110     3.1380     1.2590 hc         1 WSH       0.062367
     53 H13C         3.6100     4.3500     0.0330 hc         1 WSH       0.062367
@<TRIPOS>BOND
     1     1     3 ar  
     2     1     4 ar  
     3     1    31 1   
     4     2     6 ar  
     5     2     7 ar  
     6     2    50 1   
     7     3     9 ar  
     8     3    32 1   
     9     4    10 ar  
    10     4    33 1   
    11     5     8 ar  
    12     5    11 ar  
    13     5    38 1   
    14     6    12 ar  
    15     6    34 1   
    16     7    13 ar  
    17     7    35 1   
    18     8    14 ar  
    19     8    39 1   
    20     9    15 ar  
    21     9    36 1   
    22    10    15 ar  
    23    10    37 1   
    24    11    16 ar  
    25    11    40 1   
    26    12    17 ar  
    27    12    41 1   
    28    13    17 ar  
    29    13    42 1   
    30    14    18 ar  
    31    14    43 1   
    32    15    21 1   
    33    16    18 ar  
    34    16    21 1   
    35    17    23 1   
    36    18    27 1   
    37    19    22 1   
    38    19    24 2   
    39    19    27 1   
    40    20    25 2   
    41    20    27 1   
    42    20    48 1   
    43    21    26 2   
    44    22    26 1   
    45    22    28 1   
    46    22    46 1   
    47    23    30 1   
    48    23    44 1   
    49    23    45 1   
    50    24    25 1   
    51    28    47 1   
    52    28    49 1   
    53    29    49 2   
    54    30    49 1   
    55    48    51 1   
    56    48    52 1   
    57    48    53 1   
@<TRIPOS>SUBSTRUCTURE
     1 WSH         1 TEMP              0 ****  ****    0 ROOT
