@<TRIPOS>MOLECULE
WSH
   53    57     1     0     0
SMALL
abcg2


@<TRIPOS>ATOM
      1 C17          4.4070    -4.1150    -0.3610 ca         1 WSH      -0.092000
      2 C10         -6.7010    -0.5140     1.7860 ca         1 WSH      -0.097000
      3 C18          4.5760    -3.1170     0.5880 ca         1 WSH      -0.119500
      4 C16          3.4170    -3.9900    -1.3280 ca         1 WSH      -0.119500
      5 C22          0.7490    -0.3740     3.1310 ca         1 WSH      -0.111000
      6 C11         -6.6570     0.5010     0.8390 ca         1 WSH      -0.116500
      7 C9          -5.8120    -1.5770     1.7010 ca         1 WSH      -0.116500
      8 C23          0.7720     0.9980     3.3410 ca         1 WSH      -0.083000
      9 C19          3.7490    -2.0020     0.5800 ca         1 WSH      -0.074000
     10 C15          2.6020    -2.8700    -1.3490 ca         1 WSH      -0.074000
     11 C21          1.1250    -0.8870     1.9030 ca         1 WSH      -0.067000
     12 C12         -5.7250     0.4510    -0.1890 ca         1 WSH      -0.084000
     13 C8          -4.8810    -1.6230     0.6720 ca         1 WSH      -0.084000
     14 C24          1.1560     1.8500     2.3200 ca         1 WSH      -0.122000
     15 C14          2.7570    -1.8680    -0.3910 ca         1 WSH      -0.151900
     16 C20          1.5220    -0.0510     0.8590 ca         1 WSH      -0.184900
     17 C7          -4.8300    -0.6110    -0.2810 ca         1 WSH      -0.102300
     18 C25          1.5340     1.3300     1.0890 ca         1 WSH       0.014800
     19 C3           1.4620     2.1030    -1.2470 cc         1 WSH       0.358800
     20 C2           2.6580     3.3390     0.0660 cc         1 WSH       0.411800
     21 C13          1.9010    -0.6590    -0.4430 ce         1 WSH       0.547500
     22 C4           0.6960     0.9230    -1.7340 c3         1 WSH       0.287600
     23 C6          -3.8030    -0.6470    -1.3710 c3         1 WSH       0.231900
     24 N2           1.9300     3.0820    -1.9520 nd         1 WSH      -0.319000
     25 N1           2.6820     3.8570    -1.1290 nd         1 WSH      -0.355000
     26 N4           1.5500    -0.2480    -1.5950 n2         1 WSH      -0.576900
     27 N5           1.8880     2.2090     0.0440 na         1 WSH      -0.281800
     28 N3          -0.5920     0.8180    -1.0970 ns         1 WSH      -0.519900
     29 O1          -1.4990    -0.4580    -2.7450 o          1 WSH      -0.524000
     30 O2          -2.6550     0.0620    -0.8810 os         1 WSH      -0.459100
     31 H17          5.0430    -4.9910    -0.3470 ha         1 WSH       0.115000
     32 H18          5.3500    -3.2050     1.3390 ha         1 WSH       0.117000
     33 H16          3.2760    -4.7700    -2.0650 ha         1 WSH       0.117000
     34 H11         -7.3490     1.3310     0.8990 ha         1 WSH       0.115000
     35 H9          -5.8440    -2.3730     2.4340 ha         1 WSH       0.115000
     36 H19          3.8930    -1.2300     1.3250 ha         1 WSH       0.126000
     37 H15          1.8280    -2.7720    -2.0980 ha         1 WSH       0.126000
     38 H22          0.4360    -1.0420     3.9220 ha         1 WSH       0.126000
     39 H23          0.4740     1.4110     4.2950 ha         1 WSH       0.125000
     40 H21          1.1010    -1.9560     1.7420 ha         1 WSH       0.134000
     41 H12         -5.6980     1.2440    -0.9280 ha         1 WSH       0.115500
     42 H8          -4.1910    -2.4570     0.6090 ha         1 WSH       0.115500
     43 H24          1.1320     2.9190     2.4760 ha         1 WSH       0.131000
     44 H61C        -3.5310    -1.6750    -1.6150 h1         1 WSH       0.058700
     45 H62C        -4.1750    -0.1670    -2.2780 h1         1 WSH       0.058700
     46 H4           0.5330     1.0710    -2.8010 h2         1 WSH       0.135700
     47 H3          -0.7490     1.2000    -0.1780 hn         1 WSH       0.333500
     48 C1           3.3790     3.8660     1.2470 c3         1 WSH      -0.125400
     49 C5          -1.5800     0.0890    -1.6680 c          1 WSH       0.643100
     50 H10         -7.4280    -0.4770     2.5870 ha         1 WSH       0.113000
     51 H11C         2.7200     4.4230     1.9120 hc         1 WSH       0.062367
     52 H12C         3.8440     3.0680     1.8250 hc         1 WSH       0.062367
     53 H13C         4.1590     4.5450     0.9090 hc         1 WSH       0.062367
@<TRIPOS>BOND
     1     1     3 ar  
     2     1     4 ar  
     3     1    31 1   
     4     2     6 ar  
     5     2     7 ar  
     6     2    50 1   
     7     3     9 ar  
     8     3    32 1   
     9     4    10 ar  
    10     4    33 1   
    11     5     8 ar  
    12     5    11 ar  
    13     5    38 1   
    14     6    12 ar  
    15     6    34 1   
    16     7    13 ar  
    17     7    35 1   
    18     8    14 ar  
    19     8    39 1   
    20     9    15 ar  
    21     9    36 1   
    22    10    15 ar  
    23    10    37 1   
    24    11    16 ar  
    25    11    40 1   
    26    12    17 ar  
    27    12    41 1   
    28    13    17 ar  
    29    13    42 1   
    30    14    18 ar  
    31    14    43 1   
    32    15    21 1   
    33    16    18 ar  
    34    16    21 1   
    35    17    23 1   
    36    18    27 1   
    37    19    22 1   
    38    19    24 2   
    39    19    27 1   
    40    20    25 2   
    41    20    27 1   
    42    20    48 1   
    43    21    26 2   
    44    22    26 1   
    45    22    28 1   
    46    22    46 1   
    47    23    30 1   
    48    23    44 1   
    49    23    45 1   
    50    24    25 1   
    51    28    47 1   
    52    28    49 1   
    53    29    49 2   
    54    30    49 1   
    55    48    51 1   
    56    48    52 1   
    57    48    53 1   
@<TRIPOS>SUBSTRUCTURE
     1 WSH         1 TEMP              0 ****  ****    0 ROOT
