@<TRIPOS>MOLECULE
WSI
   43    45     1     0     0
SMALL
abcg2


@<TRIPOS>ATOM
      1 C14         60.2160    57.7640    23.1590 ca         1 WSI      -0.291500
      2 C15         59.3520    57.2350    24.1050 ca         1 WSI       0.014000
      3 C16         58.0070    57.0990    23.7840 ca         1 WSI      -0.150000
      4 C17         57.5430    57.4900    22.5400 ca         1 WSI      -0.020000
      5 C18         58.4240    58.0020    21.5870 ca         1 WSI      -0.182600
      6 C19         59.7680    58.1440    21.9010 ca         1 WSI       0.018000
      7 C20         57.8660    58.4520    20.2740 c          1 WSI       0.626700
      8 C23         58.5570    58.7240    17.9000 ca         1 WSI      -0.006000
      9 C24         57.5050    59.5110    17.4300 ca         1 WSI      -0.143000
     10 C25         57.4780    59.9120    16.1020 ca         1 WSI      -0.080000
     11 C26         58.4860    59.5290    15.2350 ca         1 WSI       0.083000
     12 C28         59.5350    58.7420    15.6860 ca         1 WSI      -0.080000
     13 C29         59.5640    58.3450    17.0090 ca         1 WSI      -0.143000
     14 C4          62.2220    54.4270    21.8830 ca         1 WSI      -0.189600
     15 C5          61.8980    53.0880    22.0840 ca         1 WSI      -0.061000
     16 C6          61.6030    52.5900    23.3410 ca         1 WSI      -0.162000
     17 C7          61.6390    53.4440    24.4330 ca         1 WSI      -0.099000
     18 C8          61.9760    54.7770    24.2700 ca         1 WSI      -0.183000
     19 C9          62.2650    55.2820    23.0010 ca         1 WSI       0.306000
     20 N10         62.6410    56.6140    22.7670 nu         1 WSI      -0.939100
     21 N22         58.7040    58.2970    19.2200 ns         1 WSI      -0.138000
     22 O1          62.4020    54.0930    19.5480 o          1 WSI      -0.685000
     23 O12         62.1190    57.8100    24.9450 o          1 WSI      -0.564000
     24 O13         62.4690    59.0660    22.8040 o          1 WSI      -0.564000
     25 O21         56.7420    58.9170    20.2000 o          1 WSI      -0.598100
     26 O3          62.8050    56.1330    20.3250 o          1 WSI      -0.685000
     27 S11         61.9530    57.9000    23.5040 sy         1 WSI       1.156600
     28 CL27        58.4430    60.0400    13.5810 cl         1 WSI      -0.225000
     29 H1          59.7060    56.9470    25.0840 ha         1 WSI       0.136000
     30 H2          57.3210    56.6920    24.5140 ha         1 WSI       0.112000
     31 H3          56.4930    57.3900    22.3040 ha         1 WSI       0.124000
     32 H4          60.4590    58.5770    21.1890 ha         1 WSI       0.143000
     33 H5          56.7070    59.8250    18.0810 ha         1 WSI       0.143500
     34 H6          56.6590    60.5270    15.7550 ha         1 WSI       0.124500
     35 H7          60.3280    58.4380    15.0160 ha         1 WSI       0.124500
     36 H8          60.3930    57.7380    17.3530 ha         1 WSI       0.143500
     37 H9          61.8710    52.4290    21.2270 ha         1 WSI       0.129000
     38 H10         61.3520    51.5450    23.4690 ha         1 WSI       0.095000
     39 H11         61.4160    53.0730    25.4280 ha         1 WSI       0.092000
     40 H12         62.0340    55.4150    25.1390 ha         1 WSI       0.125000
     41 H13         62.7950    56.7160    21.7050 hn         1 WSI       0.591000
     42 H14         59.5500    57.7770    19.3950 hn         1 WSI       0.177000
     43 C2          62.5010    54.9100    20.4650 c          1 WSI       0.721600
@<TRIPOS>BOND
     1     1     2 ar  
     2     1     6 ar  
     3     1    27 1   
     4     2     3 ar  
     5     2    29 1   
     6     3     4 ar  
     7     3    30 1   
     8     4     5 ar  
     9     4    31 1   
    10     5     6 ar  
    11     5     7 1   
    12     6    32 1   
    13     7    21 1   
    14     7    25 2   
    15     8     9 ar  
    16     8    13 ar  
    17     8    21 1   
    18     9    10 ar  
    19     9    33 1   
    20    10    11 ar  
    21    10    34 1   
    22    11    12 ar  
    23    11    28 1   
    24    12    13 ar  
    25    12    35 1   
    26    13    36 1   
    27    14    15 ar  
    28    14    19 ar  
    29    14    43 1   
    30    15    16 ar  
    31    15    37 1   
    32    16    17 ar  
    33    16    38 1   
    34    17    18 ar  
    35    17    39 1   
    36    18    19 ar  
    37    18    40 1   
    38    19    20 1   
    39    20    27 1   
    40    20    41 1   
    41    21    42 1   
    42    22    43 1   
    43    23    27 2   
    44    24    27 2   
    45    26    43 1   
@<TRIPOS>SUBSTRUCTURE
     1 WSI         1 TEMP              0 ****  ****    0 ROOT
