@<TRIPOS>MOLECULE
WSI
   43    45     1     0     0
SMALL
No Charge or Current Charge


@<TRIPOS>ATOM
      1 C14         60.3530    57.8380    23.4060 ca         1 WSI      -0.291500
      2 C15         59.4720    57.4770    24.4410 ca         1 WSI       0.014000
      3 C16         58.0980    57.3760    24.1780 ca         1 WSI      -0.150000
      4 C17         57.6020    57.6160    22.8850 ca         1 WSI      -0.020000
      5 C18         58.4770    57.9600    21.8300 ca         1 WSI      -0.182600
      6 C19         59.8600    58.0830    22.1090 ca         1 WSI       0.018000
      7 C20         57.9180    58.1790    20.4380 c          1 WSI       0.626700
      8 C23         58.7320    58.5530    18.0260 ca         1 WSI      -0.006000
      9 C24         57.5300    58.9750    17.4140 ca         1 WSI      -0.143000
     10 C25         57.4830    59.2070    16.0270 ca         1 WSI      -0.080000
     11 C26         58.6330    59.0250    15.2430 ca         1 WSI       0.083000
     12 C28         59.8330    58.6140    15.8430 ca         1 WSI      -0.080000
     13 C29         59.8810    58.3820    17.2290 ca         1 WSI      -0.143000
     14 C4          61.9460    54.7820    21.5430 ca         1 WSI      -0.189600
     15 C5          61.3840    53.4810    21.5150 ca         1 WSI      -0.061000
     16 C6          61.1020    52.7910    22.7040 ca         1 WSI      -0.162000
     17 C7          61.3800    53.3820    23.9420 ca         1 WSI      -0.099000
     18 C8          61.9360    54.6680    23.9870 ca         1 WSI      -0.183000
     19 C9          62.2150    55.3770    22.8030 ca         1 WSI       0.306000
     20 N10         62.7590    56.6460    22.8830 nu         1 WSI      -0.939100
     21 N22         58.8580    58.3060    19.4210 ns         1 WSI      -0.138000
     22 O1          62.2810    54.8140    19.2120 o          1 WSI      -0.685000
     23 O12         62.4340    57.6900    25.1190 o          1 WSI      -0.564000
     24 O13         62.6800    59.0630    22.9630 o          1 WSI      -0.564000
     25 O21         56.7080    58.2270    20.2440 o          1 WSI      -0.598100
     26 O3          62.3960    56.7010    20.2320 o          1 WSI      -0.685000
     27 S11         62.1170    57.9390    23.7100 sy         1 WSI       1.156600
     28 Cl27        58.5710    59.3170    13.5090 cl         1 WSI      -0.225000
     29 H1          59.8430    57.2740    25.4450 ha         1 WSI       0.136000
     30 H2          57.4140    57.1010    24.9770 ha         1 WSI       0.112000
     31 H3          56.5330    57.5180    22.7060 ha         1 WSI       0.124000
     32 H4          60.5650    58.3650    21.3300 ha         1 WSI       0.143000
     33 H5          56.6270    59.1380    17.9940 ha         1 WSI       0.143500
     34 H6          56.5560    59.5310    15.5610 ha         1 WSI       0.124500
     35 H7          60.7240    58.4760    15.2350 ha         1 WSI       0.124500
     36 H8          60.8180    58.0620    17.6830 ha         1 WSI       0.143500
     37 H9          61.1580    52.9990    20.5660 ha         1 WSI       0.129000
     38 H10         60.6690    51.7940    22.6640 ha         1 WSI       0.095000
     39 H11         61.1670    52.8460    24.8650 ha         1 WSI       0.092000
     40 H12         62.1580    55.1110    24.9520 ha         1 WSI       0.125000
     41 H13         62.8480    57.0610    21.9540 hn         1 WSI       0.591000
     42 H14         59.8140    58.1910    19.7250 hn         1 WSI       0.177000
     43 C2          62.2320    55.4870    20.2300 c          1 WSI       0.721600
@<TRIPOS>BOND
     1     1     2 ar  
     2     1     6 ar  
     3     1    27 1   
     4     2     3 ar  
     5     2    29 1   
     6     3     4 ar  
     7     3    30 1   
     8     4     5 ar  
     9     4    31 1   
    10     5     6 ar  
    11     5     7 1   
    12     6    32 1   
    13     7    21 1   
    14     7    25 2   
    15     8     9 ar  
    16     8    13 ar  
    17     8    21 1   
    18     9    10 ar  
    19     9    33 1   
    20    10    11 ar  
    21    10    34 1   
    22    11    12 ar  
    23    11    28 1   
    24    12    13 ar  
    25    12    35 1   
    26    13    36 1   
    27    14    15 ar  
    28    14    19 ar  
    29    14    43 1   
    30    15    16 ar  
    31    15    37 1   
    32    16    17 ar  
    33    16    38 1   
    34    17    18 ar  
    35    17    39 1   
    36    18    19 ar  
    37    18    40 1   
    38    19    20 1   
    39    20    27 1   
    40    20    41 1   
    41    21    42 1   
    42    22    43 1   
    43    23    27 2   
    44    24    27 2   
    45    26    43 1   
@<TRIPOS>SUBSTRUCTURE
     1 WSI         1 TEMP              0 ****  ****    0 ROOT
