@<TRIPOS>MOLECULE
WSJ
   34    35     1     0     0
SMALL
bcc


@<TRIPOS>ATOM
      1 N1          -0.7820     9.5740    -7.2170 na         1 WSJ      -0.392400
      2 N3          -0.2150    12.3370    -5.0240 nu         1 WSJ      -0.648900
      3 C4           0.5960    11.3770    -7.2080 c          1 WSJ       0.689700
      4 C5           0.9810     9.6010    -8.8730 ca         1 WSJ       0.038600
      5 C6           1.3440    10.2590   -10.0410 ca         1 WSJ      -0.124500
      6 C7           2.1680     9.6220   -10.9570 ca         1 WSJ      -0.119000
      7 C8           2.6100     8.3270   -10.7220 ca         1 WSJ      -0.127000
      8 C10          1.4290     8.3080    -8.6230 ca         1 WSJ      -0.124500
      9 C1          -2.2020     9.9340    -5.2140 c3         1 WSJ      -0.053900
     10 C2          -1.0920    10.3070    -6.1200 cc         1 WSJ       0.188800
     11 C3          -1.7700     8.8190    -7.9650 c3         1 WSJ       0.195100
     12 N2           0.1690    10.2760    -7.9370 n          1 WSJ      -0.231400
     13 O1           1.5200    12.1130    -7.5260 o          1 WSJ      -0.617500
     14 C9           2.2330     7.6710    -9.5570 ca         1 WSJ      -0.119000
     15 C11         -0.2590    11.3870    -6.0520 cd         1 WSJ      -0.149200
     16 S1           0.7380    12.0490    -3.6940 s6         1 WSJ       1.215900
     17 C12          2.4280    12.0610    -4.2440 c3         1 WSJ      -0.259300
     18 O2           0.4220    10.7050    -3.2370 o          1 WSJ      -0.608300
     19 O3           0.5300    13.1820    -2.8060 o          1 WSJ      -0.608300
     20 H1          -0.2110    13.3090    -5.3120 hn         1 WSJ       0.445800
     21 H2           0.9740    11.2560   -10.2400 ha         1 WSJ       0.148500
     22 H3           2.4540    10.1360   -11.8650 ha         1 WSJ       0.136500
     23 H4           3.2430     7.8290   -11.4440 ha         1 WSJ       0.135000
     24 H5           1.1540     7.8040    -7.7050 ha         1 WSJ       0.148500
     25 H6          -2.2500    10.6320    -4.3840 hc         1 WSJ       0.070033
     26 H7          -3.1590     9.9530    -5.7360 hc         1 WSJ       0.070033
     27 H8          -2.0610     8.9300    -4.8120 hc         1 WSJ       0.070033
     28 H9          -2.3620     8.2400    -7.2630 h1         1 WSJ       0.060033
     29 H10         -2.4250     9.4760    -8.5400 h1         1 WSJ       0.060033
     30 H11         -1.2780     8.1210    -8.6370 h1         1 WSJ       0.060033
     31 H12          2.5750     6.6620    -9.3650 ha         1 WSJ       0.136500
     32 H13          3.0550    11.8520    -3.3780 h1         1 WSJ       0.104700
     33 H14          2.5740    11.2910    -4.9970 h1         1 WSJ       0.104700
     34 H15          2.6650    13.0400    -4.6520 h1         1 WSJ       0.104700
@<TRIPOS>BOND
     1     1    10 1   
     2     1    11 1   
     3     1    12 1   
     4     2    15 1   
     5     2    16 1   
     6     2    20 1   
     7     3    12 1   
     8     3    13 2   
     9     3    15 1   
    10     4     5 ar  
    11     4     8 ar  
    12     4    12 1   
    13     5     6 ar  
    14     5    21 1   
    15     6     7 ar  
    16     6    22 1   
    17     7    14 ar  
    18     7    23 1   
    19     8    14 ar  
    20     8    24 1   
    21     9    10 1   
    22     9    25 1   
    23     9    26 1   
    24     9    27 1   
    25    10    15 2   
    26    11    28 1   
    27    11    29 1   
    28    11    30 1   
    29    14    31 1   
    30    16    17 1   
    31    16    18 2   
    32    16    19 2   
    33    17    32 1   
    34    17    33 1   
    35    17    34 1   
@<TRIPOS>SUBSTRUCTURE
     1 WSJ         1 TEMP              0 ****  ****    0 ROOT
