@<TRIPOS>MOLECULE
WSJ
   34    35     1     0     0
SMALL
No Charge or Current Charge


@<TRIPOS>ATOM
      1 N1          -0.5030     9.5080    -7.0600 na         1 WSJ      -0.392400
      2 N3          -0.1190    12.6070    -5.2710 nu         1 WSJ      -0.704100
      3 C4           0.6430    11.4910    -7.3730 c          1 WSJ       0.547200
      4 C5           1.0840     9.6620    -9.0690 ca         1 WSJ       0.038600
      5 C6           1.3250    10.4400   -10.2210 ca         1 WSJ      -0.106500
      6 C7           1.9800     9.8820   -11.3340 ca         1 WSJ      -0.101000
      7 C8           2.4030     8.5430   -11.3030 ca         1 WSJ      -0.109000
      8 C10          1.5180     8.3200    -9.0460 ca         1 WSJ      -0.106500
      9 C1          -1.7660     9.9270    -4.8500 c3         1 WSJ      -0.053900
     10 C2          -0.8050    10.3110    -5.9440 cc         1 WSJ       0.188800
     11 C3          -1.3520     8.4660    -7.6900 c3         1 WSJ       0.195100
     12 N2           0.4150    10.2340    -7.9290 n          1 WSJ      -0.164400
     13 O1           1.3620    12.3850    -7.8080 o          1 WSJ      -0.542000
     14 C9           2.1740     7.7630   -10.1580 ca         1 WSJ      -0.101000
     15 C11         -0.1170    11.4940    -6.1240 cd         1 WSJ      -0.149200
     16 S1           0.4270    12.6230    -3.6910 s6         1 WSJ       1.185100
     17 C12          1.6410    11.3190    -3.5860 c3         1 WSJ      -0.370100
     18 O2          -0.7220    12.2800    -2.8490 o          1 WSJ      -0.537500
     19 O3           1.1030    13.9120    -3.5360 o          1 WSJ      -0.537500
     20 H1           0.3400    13.4340    -5.6460 hn         1 WSJ       0.501000
     21 H2           0.9940    11.4740   -10.2620 ha         1 WSJ       0.130500
     22 H3           2.1570    10.4880   -12.2200 ha         1 WSJ       0.118500
     23 H4           2.9100     8.1120   -12.1640 ha         1 WSJ       0.117000
     24 H5           1.3620     7.7110    -8.1590 ha         1 WSJ       0.130500
     25 H6          -2.4330    10.7630    -4.6120 hc         1 WSJ       0.070033
     26 H7          -2.3910     9.0740    -5.1330 hc         1 WSJ       0.070033
     27 H8          -1.2260     9.6530    -3.9380 hc         1 WSJ       0.070033
     28 H9          -2.3990     8.6050    -7.3950 h1         1 WSJ       0.060033
     29 H10         -1.2960     8.5240    -8.7840 h1         1 WSJ       0.060033
     30 H11         -1.0190     7.4720    -7.3640 h1         1 WSJ       0.060033
     31 H12          2.5070     6.7270   -10.1300 ha         1 WSJ       0.118500
     32 H13          2.0470    11.3320    -2.5700 h1         1 WSJ       0.104700
     33 H14          1.1370    10.3720    -3.7980 h1         1 WSJ       0.104700
     34 H15          2.4180    11.5310    -4.3270 h1         1 WSJ       0.104700
@<TRIPOS>BOND
     1     1    10 1   
     2     1    11 1   
     3     1    12 1   
     4     2    15 1   
     5     2    16 1   
     6     2    20 1   
     7     3    12 1   
     8     3    13 2   
     9     3    15 1   
    10     4     5 ar  
    11     4     8 ar  
    12     4    12 1   
    13     5     6 ar  
    14     5    21 1   
    15     6     7 ar  
    16     6    22 1   
    17     7    14 ar  
    18     7    23 1   
    19     8    14 ar  
    20     8    24 1   
    21     9    10 1   
    22     9    25 1   
    23     9    26 1   
    24     9    27 1   
    25    10    15 2   
    26    11    28 1   
    27    11    29 1   
    28    11    30 1   
    29    14    31 1   
    30    16    17 1   
    31    16    18 2   
    32    16    19 2   
    33    17    32 1   
    34    17    33 1   
    35    17    34 1   
@<TRIPOS>SUBSTRUCTURE
     1 WSJ         1 TEMP              0 ****  ****    0 ROOT
