@<TRIPOS>MOLECULE
WSK
   40    42     1     0     0
SMALL
abcg2


@<TRIPOS>ATOM
      1 C0          -0.1940     3.3120    -0.1750 ca         1 WSK      -0.053400
      2 N0           1.1070    -0.5170    -0.8780 na         1 WSK      -0.082600
      3 O0           2.7040    -2.3090     0.7650 oh         1 WSK      -0.657000
      4 C1           1.1530     3.1670    -0.5260 ca         1 WSK      -0.058000
      5 N1           5.4110    -2.3520     0.5970 n3         1 WSK      -0.737600
      6 C2           1.6820     1.9140    -0.7760 ca         1 WSK      -0.133500
      7 C3           0.8370     0.8130    -0.6710 ca         1 WSK       0.017300
      8 C4          -0.5170     0.9640    -0.3140 cp         1 WSK      -0.088000
      9 C5          -1.0420     2.2280    -0.0640 ca         1 WSK      -0.023000
     10 C6          -1.0810    -0.3580    -0.3000 cp         1 WSK      -0.088000
     11 C7          -0.0370    -1.2400    -0.6420 ca         1 WSK       0.017300
     12 C8          -0.2510    -2.6130    -0.7140 ca         1 WSK      -0.133500
     13 C9          -1.5220    -3.0890    -0.4520 ca         1 WSK      -0.058000
     14 C10         -2.5570    -2.2080    -0.1160 ca         1 WSK      -0.053400
     15 C11         -2.3570    -0.8440    -0.0320 ca         1 WSK      -0.023000
     16 C12          2.3940    -1.0560    -1.2440 c3         1 WSK       0.077600
     17 C13          3.2890    -1.3220    -0.0450 c3         1 WSK       0.149300
     18 C14          4.6680    -1.7890    -0.5160 c3         1 WSK       0.120800
     19 C15          6.4400    -3.2730     0.1590 c3         1 WSK       0.150100
     20 C16          5.9530    -1.3340     1.4760 c3         1 WSK       0.150100
     21 BR1         -4.2770    -2.9150     0.2360 br         1 WSK      -0.105100
     22 BR2         -0.8660     5.0490     0.1580 br         1 WSK      -0.105100
     23 H13          3.4580    -2.7690     1.1720 ho         1 WSK       0.474000
     24 H1           1.7950     4.0340    -0.6030 ha         1 WSK       0.127000
     25 H2           2.7260     1.8170    -1.0420 ha         1 WSK       0.122500
     26 H3          -2.0830     2.3490     0.2070 ha         1 WSK       0.132500
     27 H4           0.5460    -3.3040    -0.9530 ha         1 WSK       0.122500
     28 H5          -1.7060    -4.1530    -0.5030 ha         1 WSK       0.127000
     29 H6          -3.1620    -0.1690     0.2310 ha         1 WSK       0.132500
     30 H8           2.8830    -0.3560    -1.9240 h1         1 WSK       0.062700
     31 H9           2.2380    -1.9780    -1.8080 h1         1 WSK       0.062700
     32 H10          3.3940    -0.3780     0.5140 h1         1 WSK       0.045700
     33 H11          5.1990    -0.9630    -1.0120 h1         1 WSK       0.043200
     34 H12          4.5310    -2.5770    -1.2630 h1         1 WSK       0.043200
     35 H17          6.9160    -3.7330     1.0260 h1         1 WSK       0.036867
     36 H18          5.9990    -4.0660    -0.4440 h1         1 WSK       0.036867
     37 H19          7.2260    -2.7900    -0.4390 h1         1 WSK       0.036867
     38 H14          5.1590    -0.7110     1.8880 h1         1 WSK       0.036867
     39 H15          6.4630    -1.8080     2.3150 h1         1 WSK       0.036867
     40 H16          6.6720    -0.6740     0.9700 h1         1 WSK       0.036867
@<TRIPOS>BOND
     1     1     4 ar  
     2     1     9 ar  
     3     1    22 1   
     4     2     7 1   
     5     2    11 1   
     6     2    16 1   
     7     3    17 1   
     8     3    23 1   
     9     4     6 ar  
    10     4    24 1   
    11     5    18 1   
    12     5    19 1   
    13     5    20 1   
    14     6     7 ar  
    15     6    25 1   
    16     7     8 ar  
    17     8     9 ar  
    18     8    10 1   
    19     9    26 1   
    20    10    11 ar  
    21    10    15 ar  
    22    11    12 ar  
    23    12    13 ar  
    24    12    27 1   
    25    13    14 ar  
    26    13    28 1   
    27    14    15 ar  
    28    14    21 1   
    29    15    29 1   
    30    16    17 1   
    31    16    30 1   
    32    16    31 1   
    33    17    18 1   
    34    17    32 1   
    35    18    33 1   
    36    18    34 1   
    37    19    35 1   
    38    19    36 1   
    39    19    37 1   
    40    20    38 1   
    41    20    39 1   
    42    20    40 1   
@<TRIPOS>SUBSTRUCTURE
     1 WSK         1 TEMP              0 ****  ****    0 ROOT
