@<TRIPOS>MOLECULE
WSK
   40    42     1     0     0
SMALL
No Charge or Current Charge


@<TRIPOS>ATOM
      1 C0          -0.2080     3.3730    -0.2580 ca         1 WSK      -0.053400
      2 N0           1.0370    -0.5530    -0.7650 na         1 WSK      -0.082600
      3 O0           2.8790    -2.3680     0.8670 oh         1 WSK      -0.657000
      4 C1           1.1730     3.2050    -0.5310 ca         1 WSK      -0.058000
      5 N1           5.5480    -2.4320     0.5490 n3         1 WSK      -0.737600
      6 C2           1.7140     1.9160    -0.7230 ca         1 WSK      -0.133500
      7 C3           0.8340     0.8300    -0.6320 ca         1 WSK       0.017300
      8 C4          -0.5260     0.9760    -0.3630 cp         1 WSK      -0.088000
      9 C5          -1.0730     2.2590    -0.1710 ca         1 WSK      -0.023000
     10 C6          -1.1340    -0.3520    -0.3340 cp         1 WSK      -0.088000
     11 C7          -0.1410    -1.2980    -0.5850 ca         1 WSK       0.017300
     12 C8          -0.3910    -2.6750    -0.6150 ca         1 WSK      -0.133500
     13 C9          -1.7190    -3.0980    -0.3860 ca         1 WSK      -0.058000
     14 C10         -2.7430    -2.1500    -0.1340 ca         1 WSK      -0.053400
     15 C11         -2.4600    -0.7660    -0.1040 ca         1 WSK      -0.023000
     16 C12          2.3200    -1.1420    -1.1950 c3         1 WSK       0.077600
     17 C13          3.3240    -1.3520    -0.0360 c3         1 WSK       0.149300
     18 C14          4.7260    -1.7980    -0.5250 c3         1 WSK       0.120800
     19 C15          6.7210    -3.1520     0.0010 c3         1 WSK       0.150100
     20 C16          5.9440    -1.4850     1.6240 c3         1 WSK       0.150100
     21 Br1         -4.5310    -2.7540     0.1740 br         1 WSK      -0.105100
     22 Br2         -0.9120     5.1330    -0.0030 br         1 WSK      -0.105100
     23 H13          3.7380    -2.7920     1.1240 ho         1 WSK       0.474000
     24 H1           1.8210     4.0770    -0.5930 ha         1 WSK       0.127000
     25 H2           2.7720     1.7770    -0.9310 ha         1 WSK       0.122500
     26 H3          -2.1310     2.3870     0.0400 ha         1 WSK       0.132500
     27 H4           0.4020    -3.3950    -0.8020 ha         1 WSK       0.122500
     28 H5          -1.9560    -4.1590    -0.4010 ha         1 WSK       0.127000
     29 H6          -3.2450    -0.0400     0.0920 ha         1 WSK       0.132500
     30 H8           2.7700    -0.4740    -1.9390 h1         1 WSK       0.062700
     31 H9           2.1310    -2.0990    -1.6950 h1         1 WSK       0.062700
     32 H10          3.4390    -0.4020     0.5030 h1         1 WSK       0.045700
     33 H11          5.2490    -0.9340    -0.9560 h1         1 WSK       0.043200
     34 H12          4.5790    -2.5200    -1.3410 h1         1 WSK       0.043200
     35 H17          7.2690    -3.6680     0.8000 h1         1 WSK       0.036867
     36 H18          6.4060    -3.9070    -0.7320 h1         1 WSK       0.036867
     37 H19          7.4110    -2.4570    -0.4960 h1         1 WSK       0.036867
     38 H14          5.0660    -1.0280     2.0990 h1         1 WSK       0.036867
     39 H15          6.5110    -2.0040     2.4080 h1         1 WSK       0.036867
     40 H16          6.5750    -0.6800     1.2230 h1         1 WSK       0.036867
@<TRIPOS>BOND
     1     1     4 ar  
     2     1     9 ar  
     3     1    22 1   
     4     2     7 1   
     5     2    11 1   
     6     2    16 1   
     7     3    17 1   
     8     3    23 1   
     9     4     6 ar  
    10     4    24 1   
    11     5    18 1   
    12     5    19 1   
    13     5    20 1   
    14     6     7 ar  
    15     6    25 1   
    16     7     8 ar  
    17     8     9 ar  
    18     8    10 1   
    19     9    26 1   
    20    10    11 ar  
    21    10    15 ar  
    22    11    12 ar  
    23    12    13 ar  
    24    12    27 1   
    25    13    14 ar  
    26    13    28 1   
    27    14    15 ar  
    28    14    21 1   
    29    15    29 1   
    30    16    17 1   
    31    16    30 1   
    32    16    31 1   
    33    17    18 1   
    34    17    32 1   
    35    18    33 1   
    36    18    34 1   
    37    19    35 1   
    38    19    36 1   
    39    19    37 1   
    40    20    38 1   
    41    20    39 1   
    42    20    40 1   
@<TRIPOS>SUBSTRUCTURE
     1 WSK         1 TEMP              0 ****  ****    0 ROOT
