@<TRIPOS>MOLECULE
WSM
   29    30     1     0     0
SMALL
No Charge or Current Charge


@<TRIPOS>ATOM
      1 N1           3.2350    43.0310    11.9980 n8         1 WSM      -1.005200
      2 C4           7.3550    44.9400    11.3040 ca         1 WSM      -0.080000
      3 C5           7.2160    46.3480    11.3150 ca         1 WSM      -0.122000
      4 C6           8.2840    47.1670    11.7200 ca         1 WSM      -0.107000
      5 C7           9.4890    46.5950    12.1590 ca         1 WSM      -0.106000
      6 C8           9.6140    45.1990    12.2290 ca         1 WSM      -0.105000
      7 C10          7.4400    42.2810    12.2210 c6         1 WSM       0.074600
      8 C1           2.8200    44.0820    11.0570 c3         1 WSM       0.156800
      9 C2           3.9360    45.1120    10.7700 c3         1 WSM      -0.098400
     10 C3           5.1840    44.5520    10.0420 c3         1 WSM       0.096000
     11 N2           6.2550    44.0620    10.9530 n          1 WSM      -0.206400
     12 C9           8.5420    44.3790    11.8420 ca         1 WSM       0.079100
     13 O1           8.6640    43.0140    11.9890 os         1 WSM      -0.326100
     14 C11          6.3560    42.6750    11.2060 c          1 WSM       0.548000
     15 O2           5.6650    41.8340    10.6380 o          1 WSM      -0.549000
     16 H1           2.4510    42.3810    12.1380 hn         1 WSM       0.402500
     17 H2           3.9460    42.4470    11.5350 hn         1 WSM       0.402500
     18 H5           8.1760    48.2500    11.6970 ha         1 WSM       0.118000
     19 H6          10.3140    47.2330    12.4700 ha         1 WSM       0.120000
     20 H7          10.5300    44.7510    12.6070 ha         1 WSM       0.131000
     21 H8           7.0560    42.5200    13.2220 h1         1 WSM       0.085700
     22 H9           7.6260    41.2020    12.1450 h1         1 WSM       0.085700
     23 H10          1.9550    44.6050    11.4880 h1         1 WSM       0.025200
     24 H11          2.5000    43.6090    10.1180 h1         1 WSM       0.025200
     25 H12          4.2340    45.6090    11.7010 hc         1 WSM       0.054700
     26 H13          3.5000    45.8910    10.1340 hc         1 WSM       0.054700
     27 H14          5.6100    45.3500     9.4200 h1         1 WSM       0.061700
     28 H15          4.8800    43.7640     9.3420 h1         1 WSM       0.061700
     29 H4           6.2920    46.8240    10.9950 ha         1 WSM       0.121000
@<TRIPOS>BOND
     1     1     8 1   
     2     1    16 1   
     3     1    17 1   
     4     2     3 ar  
     5     2    11 1   
     6     2    12 ar  
     7     3     4 ar  
     8     3    29 1   
     9     4     5 ar  
    10     4    18 1   
    11     5     6 ar  
    12     5    19 1   
    13     6    12 ar  
    14     6    20 1   
    15     7    13 1   
    16     7    14 1   
    17     7    21 1   
    18     7    22 1   
    19     8     9 1   
    20     8    23 1   
    21     8    24 1   
    22     9    10 1   
    23     9    25 1   
    24     9    26 1   
    25    10    11 1   
    26    10    27 1   
    27    10    28 1   
    28    11    14 1   
    29    12    13 1   
    30    14    15 2   
@<TRIPOS>SUBSTRUCTURE
     1 WSM         1 TEMP              0 ****  ****    0 ROOT
