@<TRIPOS>MOLECULE
WSM
   29    30     1     0     0
SMALL
bcc


@<TRIPOS>ATOM
      1 N1           2.9930    43.1340    11.9520 n8         1 WSM      -0.894800
      2 C4           7.3180    44.8750    11.3740 ca         1 WSM       0.012600
      3 C5           7.1220    46.2520    11.3210 ca         1 WSM      -0.140000
      4 C6           8.1300    47.1230    11.7120 ca         1 WSM      -0.125000
      5 C7           9.3460    46.6310    12.1600 ca         1 WSM      -0.124000
      6 C8           9.5490    45.2600    12.2310 ca         1 WSM      -0.123000
      7 C10          7.6230    42.2910    12.1430 c6         1 WSM       0.051400
      8 C1           2.8360    44.2150    10.9910 c3         1 WSM       0.156800
      9 C2           4.0880    45.0730    10.8570 c3         1 WSM      -0.098400
     10 C3           5.2530    44.4250    10.0860 c3         1 WSM       0.096000
     11 N2           6.3570    43.9540    10.9170 n          1 WSM      -0.366000
     12 C9           8.5460    44.3920    11.8370 ca         1 WSM       0.079100
     13 O1           8.7740    43.0580    11.8670 os         1 WSM      -0.302900
     14 C11          6.4600    42.6430    11.2430 c          1 WSM       0.690500
     15 O2           5.6670    41.7900    10.8850 o          1 WSM      -0.624500
     16 H1           2.1080    42.6530    12.0500 hn         1 WSM       0.347300
     17 H2           3.6360    42.4430    11.5870 hn         1 WSM       0.347300
     18 H5           7.9560    48.1890    11.6590 ha         1 WSM       0.136000
     19 H6          10.1340    47.3070    12.4640 ha         1 WSM       0.138000
     20 H7          10.4910    44.8550    12.5780 ha         1 WSM       0.149000
     21 H8           7.3080    42.4190    13.1880 h1         1 WSM       0.085700
     22 H9           7.8850    41.2460    11.9910 h1         1 WSM       0.085700
     23 H10          2.0300    44.8610    11.3450 h1         1 WSM       0.025200
     24 H11          2.5370    43.8770     9.9880 h1         1 WSM       0.025200
     25 H12          4.4140    45.3810    11.8530 hc         1 WSM       0.054700
     26 H13          3.8070    45.9870    10.3300 hc         1 WSM       0.054700
     27 H14          5.6750    45.1330     9.3710 h1         1 WSM       0.061700
     28 H15          4.8980    43.5780     9.5020 h1         1 WSM       0.061700
     29 H4           6.1860    46.6640    10.9710 ha         1 WSM       0.139000
@<TRIPOS>BOND
     1     1     8 1   
     2     1    16 1   
     3     1    17 1   
     4     2     3 ar  
     5     2    11 1   
     6     2    12 ar  
     7     3     4 ar  
     8     3    29 1   
     9     4     5 ar  
    10     4    18 1   
    11     5     6 ar  
    12     5    19 1   
    13     6    12 ar  
    14     6    20 1   
    15     7    13 1   
    16     7    14 1   
    17     7    21 1   
    18     7    22 1   
    19     8     9 1   
    20     8    23 1   
    21     8    24 1   
    22     9    10 1   
    23     9    25 1   
    24     9    26 1   
    25    10    11 1   
    26    10    27 1   
    27    10    28 1   
    28    11    14 1   
    29    12    13 1   
    30    14    15 2   
@<TRIPOS>SUBSTRUCTURE
     1 WSM         1 TEMP              0 ****  ****    0 ROOT
