@<TRIPOS>MOLECULE
WSN
   64    67     1     0     0
SMALL
No Charge or Current Charge


@<TRIPOS>ATOM
      1 C13          5.4320    19.8050     3.1540 c5         1 WSN      -0.093400
      2 C16          5.8520    16.5060     1.4780 c          1 WSN       0.641100
      3 C18          5.5070    15.4290     2.5080 cx         1 WSN      -0.142700
      4 C19          6.6110    15.1920     3.5100 ca         1 WSN      -0.093300
      5 C20          7.8680    14.7420     3.0610 ca         1 WSN      -0.061000
      6 C21          8.9110    14.5150     3.9750 ca         1 WSN      -0.164500
      7 C22          8.7150    14.7330     5.3470 ca         1 WSN       0.139100
      8 C23          7.4570    15.1800     5.8050 ca         1 WSN      -0.164500
      9 C24          6.4140    15.4060     4.8900 ca         1 WSN      -0.061000
     10 C26          9.6800    14.6880     7.6160 c3         1 WSN       0.218900
     11 C27         11.0230    14.3330     8.2380 ca         1 WSN      -0.148300
     12 C28         12.0270    15.3110     8.3960 ca         1 WSN       0.221000
     13 C1           5.9280    18.9800     0.9340 c5         1 WSN       0.033700
     14 C2           7.4490    19.3030     0.7790 c          1 WSN       0.593100
     15 O3           8.3730    18.9050     1.4770 o          1 WSN      -0.572100
     16 N4           7.6330    20.1160    -0.3240 ns         1 WSN      -0.508900
     17 C5           8.9420    20.6070    -0.8010 c3         1 WSN       0.062400
     18 C6           8.8760    22.0940    -1.1330 c2         1 WSN       0.398200
     19 N7           9.2740    23.0150    -0.3280 n2         1 WSN      -0.718100
     20 C8           9.4470    19.7670    -2.0000 c3         1 WSN      -0.171400
     21 C9           9.6780    18.3030    -1.6220 c          1 WSN       0.603100
     22 N10          8.7070    17.4340    -1.9720 nt         1 WSN      -0.602000
     23 O11         10.6860    17.9130    -1.0590 o          1 WSN      -0.594100
     24 C12          5.2030    20.1530     1.6620 c5         1 WSN      -0.079400
     25 C14          5.1380    18.2830     3.1800 c5         1 WSN       0.114000
     26 N15          5.6410    17.8490     1.8580 n          1 WSN      -0.394800
     27 O17          6.2870    16.2230     0.3670 o          1 WSN      -0.620100
     28 O25          9.7760    14.4940     6.1950 os         1 WSN      -0.345100
     29 C29         13.2640    14.9780     8.9680 ca         1 WSN      -0.196000
     30 C30         13.5040    13.6620     9.3830 ca         1 WSN       0.203000
     31 C31         12.5170    12.6780     9.2290 ca         1 WSN      -0.170000
     32 C32         11.2760    13.0110     8.6560 ca         1 WSN      -0.039000
     33 C33          4.0380    15.2270     2.8530 cx         1 WSN      -0.106900
     34 C34          4.7470    14.2210     1.9860 cx         1 WSN      -0.106900
     35 F35         14.6950    13.3390     9.9330 f          1 WSN      -0.175000
     36 F36         11.8100    16.5850     7.9990 f          1 WSN      -0.168000
     37 H46          6.4650    20.0110     3.4580 hc         1 WSN       0.066200
     38 H47          4.7760    20.3670     3.8280 hc         1 WSN       0.066200
     39 H50          8.0370    14.5650     2.0010 ha         1 WSN       0.124000
     40 H51          9.8770    14.1690     3.6180 ha         1 WSN       0.125500
     41 H52          7.2700    15.3580     6.8600 ha         1 WSN       0.125500
     42 H53          5.4520    15.7530     5.2610 ha         1 WSN       0.124000
     43 H54          9.4220    15.7290     7.8500 h1         1 WSN       0.047700
     44 H55          8.8990    14.0430     8.0410 h1         1 WSN       0.047700
     45 H37          5.5030    18.8040    -0.0630 h1         1 WSN       0.068700
     46 H38          6.7990    20.3980    -0.8280 hn         1 WSN       0.307500
     47 H39          9.6740    20.4990     0.0130 h1         1 WSN       0.131700
     48 H1           8.4590    22.3700    -2.0970 h4         1 WSN      -0.047200
     49 H7           9.1230    23.9350    -0.7670 hn         1 WSN       0.377400
     50 H41          8.6960    19.8320    -2.7960 hc         1 WSN       0.063200
     51 H40         10.3970    20.1920    -2.3440 hc         1 WSN       0.063200
     52 H43          8.8050    16.4600    -1.7270 hn         1 WSN       0.315000
     53 H42          7.8750    17.7640    -2.4360 hn         1 WSN       0.315000
     54 H44          5.5940    21.1400     1.3910 hc         1 WSN       0.055200
     55 H45          4.1330    20.1550     1.4240 hc         1 WSN       0.055200
     56 H48          5.6580    17.7970     4.0130 h1         1 WSN       0.053200
     57 H49          4.0620    18.0860     3.2700 h1         1 WSN       0.053200
     58 H56         14.0310    15.7360     9.0870 ha         1 WSN       0.153000
     59 H57         12.7130    11.6590     9.5520 ha         1 WSN       0.139000
     60 H58         10.5140    12.2420     8.5360 ha         1 WSN       0.124000
     61 H60          3.7710    14.9130     3.8580 hc         1 WSN       0.079200
     62 H59          3.3050    15.8720     2.3730 hc         1 WSN       0.079200
     63 H61          4.4850    14.1900     0.9310 hc         1 WSN       0.079200
     64 H62          4.9740    13.2510     2.4230 hc         1 WSN       0.079200
@<TRIPOS>BOND
     1     1    24 1   
     2     1    25 1   
     3     1    37 1   
     4     1    38 1   
     5     2     3 1   
     6     2    26 1   
     7     2    27 2   
     8     3     4 1   
     9     3    33 1   
    10     3    34 1   
    11     4     5 ar  
    12     4     9 ar  
    13     5     6 ar  
    14     5    39 1   
    15     6     7 ar  
    16     6    40 1   
    17     7     8 ar  
    18     7    28 1   
    19     8     9 ar  
    20     8    41 1   
    21     9    42 1   
    22    10    11 1   
    23    10    28 1   
    24    10    43 1   
    25    10    44 1   
    26    11    12 ar  
    27    11    32 ar  
    28    12    29 ar  
    29    12    36 1   
    30    13    14 1   
    31    13    24 1   
    32    13    26 1   
    33    13    45 1   
    34    14    15 2   
    35    14    16 1   
    36    16    17 1   
    37    16    46 1   
    38    17    18 1   
    39    17    20 1   
    40    17    47 1   
    41    18    19 2   
    42    18    48 1   
    43    19    49 1   
    44    20    21 1   
    45    20    50 1   
    46    20    51 1   
    47    21    22 1   
    48    21    23 2   
    49    22    52 1   
    50    22    53 1   
    51    24    54 1   
    52    24    55 1   
    53    25    26 1   
    54    25    56 1   
    55    25    57 1   
    56    29    30 ar  
    57    29    58 1   
    58    30    31 ar  
    59    30    35 1   
    60    31    32 ar  
    61    31    59 1   
    62    32    60 1   
    63    33    34 1   
    64    33    61 1   
    65    33    62 1   
    66    34    63 1   
    67    34    64 1   
@<TRIPOS>SUBSTRUCTURE
     1 WSN         1 TEMP              0 ****  ****    0 ROOT
