@<TRIPOS>MOLECULE
WSN
   64    67     1     0     0
SMALL
abcg2


@<TRIPOS>ATOM
      1 C13          5.3210    19.7800     3.5370 c5         1 WSN      -0.093400
      2 C16          5.7070    16.7730     1.4730 c          1 WSN       0.641100
      3 C18          5.4820    15.5840     2.3830 cx         1 WSN      -0.142700
      4 C19          6.5870    15.3940     3.3810 ca         1 WSN      -0.093300
      5 C20          7.9170    15.4960     2.9530 ca         1 WSN      -0.061000
      6 C21          8.9720    15.3230     3.8290 ca         1 WSN      -0.164500
      7 C22          8.7250    15.0340     5.1750 ca         1 WSN       0.139100
      8 C23          7.4110    14.9280     5.6210 ca         1 WSN      -0.164500
      9 C24          6.3590    15.1140     4.7240 ca         1 WSN      -0.061000
     10 C26          9.6180    14.5750     7.3540 c3         1 WSN       0.218900
     11 C27         10.9600    14.4380     8.0030 ca         1 WSN      -0.148300
     12 C28         11.6980    15.5560     8.3770 ca         1 WSN       0.221000
     13 C1           5.8110    19.1930     1.2440 c5         1 WSN       0.033700
     14 C2           7.3230    19.3620     1.0620 c          1 WSN       0.593100
     15 O3           8.1080    19.1590     1.9840 o          1 WSN      -0.572100
     16 N4           7.7010    19.7860    -0.1600 ns         1 WSN      -0.508900
     17 C5           9.0890    20.0200    -0.5330 c3         1 WSN       0.062400
     18 C6           9.3370    21.4970    -0.7130 c2         1 WSN       0.398200
     19 N7          10.3320    22.0670    -0.1760 n2         1 WSN      -0.718100
     20 C8           9.4350    19.2500    -1.8130 c3         1 WSN      -0.171400
     21 C9           9.2840    17.7520    -1.5930 c          1 WSN       0.603100
     22 N10          8.5090    17.1020    -2.4760 nt         1 WSN      -0.602000
     23 O11          9.8520    17.1840    -0.6610 o          1 WSN      -0.594100
     24 C12          5.2240    20.3230     2.1080 c5         1 WSN      -0.079400
     25 C14          5.0410    18.2860     3.3770 c5         1 WSN       0.114000
     26 N15          5.5240    17.9900     2.0190 n          1 WSN      -0.394800
     27 O17          6.0780    16.6430     0.3010 o          1 WSN      -0.620100
     28 O25          9.8260    14.8730     5.9640 os         1 WSN      -0.345100
     29 C29         12.9440    15.4810     8.9720 ca         1 WSN      -0.196000
     30 C30         13.4570    14.2150     9.1900 ca         1 WSN       0.203000
     31 C31         12.7790    13.0610     8.8440 ca         1 WSN      -0.170000
     32 C32         11.5300    13.1900     8.2490 ca         1 WSN      -0.039000
     33 C33          4.0530    15.2220     2.6960 cx         1 WSN      -0.106900
     34 C34          4.8500    14.3700     1.7500 cx         1 WSN      -0.106900
     35 F35         14.6740    14.1100     9.7710 f          1 WSN      -0.175000
     36 F36         11.1760    16.7840     8.1570 f          1 WSN      -0.168000
     37 H46          6.3280    19.9290     3.9270 hc         1 WSN       0.066200
     38 H47          4.6140    20.2550     4.2160 hc         1 WSN       0.066200
     39 H50          8.1290    15.7170     1.9140 ha         1 WSN       0.124000
     40 H51          9.9960    15.4080     3.4890 ha         1 WSN       0.125500
     41 H52          7.1860    14.7110     6.6550 ha         1 WSN       0.125500
     42 H53          5.3480    15.0450     5.1000 ha         1 WSN       0.124000
     43 H54          9.0390    15.3780     7.8150 h1         1 WSN       0.047700
     44 H55          9.0620    13.6400     7.4500 h1         1 WSN       0.047700
     45 H37          5.3300    19.1350     0.2690 h1         1 WSN       0.068700
     46 H38          6.9950    19.8860    -0.8740 hn         1 WSN       0.307500
     47 H39          9.7070    19.6580     0.2840 h1         1 WSN       0.131700
     48 H1           8.6060    22.0240    -1.3350 h4         1 WSN      -0.047200
     49 H7          10.3530    23.0600    -0.4110 hn         1 WSN       0.377400
     50 H41          8.8170    19.5970    -2.6430 hc         1 WSN       0.063200
     51 H40         10.4790    19.4440    -2.0680 hc         1 WSN       0.063200
     52 H43          8.3710    16.1080    -2.3800 hn         1 WSN       0.315000
     53 H42          8.0260    17.5850    -3.2150 hn         1 WSN       0.315000
     54 H44          5.7530    21.2650     1.9680 hc         1 WSN       0.055200
     55 H45          4.1810    20.4730     1.8250 hc         1 WSN       0.055200
     56 H48          5.5630    17.6810     4.1140 h1         1 WSN       0.053200
     57 H49          3.9730    18.0690     3.4460 h1         1 WSN       0.053200
     58 H56         13.4890    16.3720     9.2530 ha         1 WSN       0.153000
     59 H57         13.2180    12.0920     9.0370 ha         1 WSN       0.139000
     60 H58         10.9780    12.3020     7.9690 ha         1 WSN       0.124000
     61 H60          3.8200    14.8320     3.6770 hc         1 WSN       0.079200
     62 H59          3.2850    15.8570     2.2750 hc         1 WSN       0.079200
     63 H61          4.6230    14.4220     0.6940 hc         1 WSN       0.079200
     64 H62          5.1940    13.4080     2.1030 hc         1 WSN       0.079200
@<TRIPOS>BOND
     1     1    24 1   
     2     1    25 1   
     3     1    37 1   
     4     1    38 1   
     5     2     3 1   
     6     2    26 1   
     7     2    27 2   
     8     3     4 1   
     9     3    33 1   
    10     3    34 1   
    11     4     5 ar  
    12     4     9 ar  
    13     5     6 ar  
    14     5    39 1   
    15     6     7 ar  
    16     6    40 1   
    17     7     8 ar  
    18     7    28 1   
    19     8     9 ar  
    20     8    41 1   
    21     9    42 1   
    22    10    11 1   
    23    10    28 1   
    24    10    43 1   
    25    10    44 1   
    26    11    12 ar  
    27    11    32 ar  
    28    12    29 ar  
    29    12    36 1   
    30    13    14 1   
    31    13    24 1   
    32    13    26 1   
    33    13    45 1   
    34    14    15 2   
    35    14    16 1   
    36    16    17 1   
    37    16    46 1   
    38    17    18 1   
    39    17    20 1   
    40    17    47 1   
    41    18    19 2   
    42    18    48 1   
    43    19    49 1   
    44    20    21 1   
    45    20    50 1   
    46    20    51 1   
    47    21    22 1   
    48    21    23 2   
    49    22    52 1   
    50    22    53 1   
    51    24    54 1   
    52    24    55 1   
    53    25    26 1   
    54    25    56 1   
    55    25    57 1   
    56    29    30 ar  
    57    29    58 1   
    58    30    31 ar  
    59    30    35 1   
    60    31    32 ar  
    61    31    59 1   
    62    32    60 1   
    63    33    34 1   
    64    33    61 1   
    65    33    62 1   
    66    34    63 1   
    67    34    64 1   
@<TRIPOS>SUBSTRUCTURE
     1 WSN         1 TEMP              0 ****  ****    0 ROOT
