@<TRIPOS>MOLECULE
WSO
   70    72     1     0     0
SMALL
abcg2


@<TRIPOS>ATOM
      1 C01         33.6540    19.6890    23.4840 c3         1 WSO      -0.041800
      2 C02         34.1970    18.2920    23.4280 ca         1 WSO      -0.106300
      3 C03         33.3560    17.1890    23.5290 ca         1 WSO      -0.049000
      4 C04         33.8590    15.9020    23.4540 ca         1 WSO      -0.054200
      5 C08         31.6770    13.1370    23.2750 cc         1 WSO       0.115500
      6 C09         30.8520    12.0290    22.7580 c          1 WSO       0.556600
      7 C11         29.1760    10.4050    23.6130 ca         1 WSO      -0.031000
      8 C12         28.6170     9.9530    24.8220 ca         1 WSO       0.069100
      9 C14         28.1810    11.0150    26.9390 c3         1 WSO       0.182300
     10 C15         29.0010    11.2740    28.1860 c3         1 WSO      -0.092100
     11 C16         27.4900    12.2620    26.4020 c3         1 WSO      -0.112400
     12 C17         26.3970    12.7940    27.3230 c3         1 WSO      -0.071400
     13 C18         25.6780    13.9980    26.7310 c3         1 WSO      -0.089100
     14 C19         27.6500     8.9670    24.7950 ca         1 WSO      -0.135000
     15 C20         27.2400     8.4080    23.5890 ca         1 WSO      -0.118000
     16 C21         27.7950     8.8200    22.3840 ca         1 WSO      -0.055300
     17 C22         27.4060     8.2130    21.0400 c3         1 WSO       0.002300
     18 C23         26.2930     7.1740    21.1760 c3         1 WSO      -0.083433
     19 C24         28.6330     7.5230    20.4260 c3         1 WSO      -0.083433
     20 C25         26.9170     9.3140    20.0890 c3         1 WSO      -0.083433
     21 C26         28.7670     9.8240    22.4180 ca         1 WSO      -0.127000
     22 C28         32.5380    13.9780    22.6020 cd         1 WSO      -0.067300
     23 C29         32.9610    14.1020    21.1870 c3         1 WSO      -0.036800
     24 C30         35.2240    15.6600    23.2790 ca         1 WSO       0.157100
     25 C32         36.9860    14.0880    23.0850 c3         1 WSO       0.146900
     26 C33         36.0710    16.7590    23.1690 ca         1 WSO      -0.193000
     27 C34         35.5540    18.0460    23.2460 ca         1 WSO      -0.056000
     28 N05         32.9740    14.8020    23.5760 na         1 WSO       0.214000
     29 N06         32.4320    14.5000    24.7580 nd         1 WSO      -0.174800
     30 N07         31.6560    13.5040    24.5790 nc         1 WSO      -0.357000
     31 N10         30.1110    11.4340    23.7210 ns         1 WSO      -0.125000
     32 O13         29.1040    10.4970    25.9660 os         1 WSO      -0.374100
     33 O27         30.8580    11.7160    21.5780 o          1 WSO      -0.605100
     34 O31         35.6080    14.3780    23.2360 os         1 WSO      -0.330100
     35 H1          33.3890    20.0500    22.4880 hc         1 WSO       0.045367
     36 H2          32.7560    19.7440    24.0980 hc         1 WSO       0.045367
     37 H3          34.3870    20.3830    23.8950 hc         1 WSO       0.045367
     38 H4          32.2900    17.3240    23.6680 ha         1 WSO       0.134000
     39 H5          27.4250    10.2520    27.1600 h1         1 WSO       0.036700
     40 H6          28.3660    11.6270    28.9970 hc         1 WSO       0.047033
     41 H7          29.4940    10.3630    28.5280 hc         1 WSO       0.047033
     42 H8          29.7620    12.0330    28.0000 hc         1 WSO       0.047033
     43 H9          28.2430    13.0390    26.2290 hc         1 WSO       0.054200
     44 H10         27.0450    12.0320    25.4280 hc         1 WSO       0.054200
     45 H11         25.6730    11.9980    27.5230 hc         1 WSO       0.036700
     46 H12         26.8210    13.0720    28.2900 hc         1 WSO       0.036700
     47 H13         24.8880    14.3540    27.3920 hc         1 WSO       0.033033
     48 H14         26.3690    14.8280    26.5680 hc         1 WSO       0.033033
     49 H15         25.2220    13.7550    25.7690 hc         1 WSO       0.033033
     50 H16         27.2140     8.6100    25.7200 ha         1 WSO       0.116000
     51 H17         26.4830     7.6380    23.6170 ha         1 WSO       0.113000
     52 H18         26.5850     6.3390    21.8140 hc         1 WSO       0.035478
     53 H19         25.3760     7.6070    21.5810 hc         1 WSO       0.035478
     54 H20         26.0550     6.7650    20.1930 hc         1 WSO       0.035478
     55 H21         29.0000     6.7250    21.0730 hc         1 WSO       0.035478
     56 H22         28.3750     7.0800    19.4620 hc         1 WSO       0.035478
     57 H23         29.4520     8.2230    20.2610 hc         1 WSO       0.035478
     58 H24         26.0390     9.8220    20.4920 hc         1 WSO       0.035478
     59 H25         27.6840    10.0680    19.9050 hc         1 WSO       0.035478
     60 H26         26.6430     8.8860    19.1230 hc         1 WSO       0.035478
     61 H27         29.2040    10.1690    21.4940 ha         1 WSO       0.146000
     62 H28         32.7430    15.0990    20.8030 hc         1 WSO       0.067700
     63 H29         34.0330    13.9340    21.0840 hc         1 WSO       0.067700
     64 H30         32.4410    13.3750    20.5740 hc         1 WSO       0.067700
     65 H31         37.0740    13.0050    23.1070 h1         1 WSO       0.047033
     66 H32         37.3760    14.4570    22.1330 h1         1 WSO       0.047033
     67 H33         37.5790    14.5080    23.9000 h1         1 WSO       0.047033
     68 H34         37.1360    16.6300    23.0330 ha         1 WSO       0.125000
     69 H35         36.2390    18.8810    23.1640 ha         1 WSO       0.117000
     70 H36         30.2450    11.7880    24.6600 hn         1 WSO       0.193000
@<TRIPOS>BOND
     1     1     2 1   
     2     1    35 1   
     3     1    36 1   
     4     1    37 1   
     5     2     3 ar  
     6     2    27 ar  
     7     3     4 ar  
     8     3    38 1   
     9     4    24 ar  
    10     4    28 1   
    11     5     6 1   
    12     5    22 2   
    13     5    30 1   
    14     6    31 1   
    15     6    33 2   
    16     7     8 ar  
    17     7    21 ar  
    18     7    31 1   
    19     8    14 ar  
    20     8    32 1   
    21     9    10 1   
    22     9    11 1   
    23     9    32 1   
    24     9    39 1   
    25    10    40 1   
    26    10    41 1   
    27    10    42 1   
    28    11    12 1   
    29    11    43 1   
    30    11    44 1   
    31    12    13 1   
    32    12    45 1   
    33    12    46 1   
    34    13    47 1   
    35    13    48 1   
    36    13    49 1   
    37    14    15 ar  
    38    14    50 1   
    39    15    16 ar  
    40    15    51 1   
    41    16    17 1   
    42    16    21 ar  
    43    17    18 1   
    44    17    19 1   
    45    17    20 1   
    46    18    52 1   
    47    18    53 1   
    48    18    54 1   
    49    19    55 1   
    50    19    56 1   
    51    19    57 1   
    52    20    58 1   
    53    20    59 1   
    54    20    60 1   
    55    21    61 1   
    56    22    23 1   
    57    22    28 1   
    58    23    62 1   
    59    23    63 1   
    60    23    64 1   
    61    24    26 ar  
    62    24    34 1   
    63    25    34 1   
    64    25    65 1   
    65    25    66 1   
    66    25    67 1   
    67    26    27 ar  
    68    26    68 1   
    69    27    69 1   
    70    28    29 1   
    71    29    30 2   
    72    31    70 1   
@<TRIPOS>SUBSTRUCTURE
     1 WSO         1 TEMP              0 ****  ****    0 ROOT
