@<TRIPOS>MOLECULE
WSO
   70    72     1     0     0
SMALL
No Charge or Current Charge


@<TRIPOS>ATOM
      1 C01         34.3050    19.7370    22.5510 c3         1 WSO      -0.041800
      2 C02         34.7450    18.3010    22.8000 ca         1 WSO      -0.106300
      3 C03         33.7930    17.3140    23.1140 ca         1 WSO      -0.049000
      4 C04         34.1930    15.9830    23.3390 ca         1 WSO      -0.054200
      5 C08         31.7990    13.4860    23.3170 cc         1 WSO       0.115500
      6 C09         30.9570    12.4110    22.6990 c          1 WSO       0.556600
      7 C11         29.1040    10.8130    23.5260 ca         1 WSO      -0.031000
      8 C12         28.3990    10.4890    24.7020 ca         1 WSO       0.069100
      9 C14         27.9420    11.1130    27.0760 c3         1 WSO       0.182300
     10 C15         28.8360    11.7020    28.1870 c3         1 WSO      -0.092100
     11 C16         26.6230    11.9050    26.8620 c3         1 WSO      -0.112400
     12 C17         25.6400    11.8350    28.0540 c3         1 WSO      -0.071400
     13 C18         24.3100    12.5630    27.7790 c3         1 WSO      -0.089100
     14 C19         27.4220     9.4730    24.6710 ca         1 WSO      -0.135000
     15 C20         27.1400     8.7940    23.4760 ca         1 WSO      -0.118000
     16 C21         27.8280     9.1070    22.2800 ca         1 WSO      -0.055300
     17 C22         27.5460     8.3800    20.9350 c3         1 WSO       0.002300
     18 C23         26.4390     7.2940    21.0490 c3         1 WSO      -0.083433
     19 C24         28.8450     7.6860    20.4440 c3         1 WSO      -0.083433
     20 C25         27.0850     9.4190    19.8770 c3         1 WSO      -0.083433
     21 C26         28.8120    10.1230    22.3290 ca         1 WSO      -0.127000
     22 C28         32.7420    14.2170    22.6370 cd         1 WSO      -0.067300
     23 C29         33.1880    14.1900    21.1870 c3         1 WSO      -0.036800
     24 C30         35.5570    15.6310    23.2540 ca         1 WSO       0.157100
     25 C32         37.2820    13.8630    23.4010 c3         1 WSO       0.146900
     26 C33         36.5100    16.6230    22.9360 ca         1 WSO      -0.193000
     27 C34         36.1030    17.9490    22.7090 ca         1 WSO      -0.056000
     28 N05         33.2310    15.0220    23.6450 na         1 WSO       0.214000
     29 N06         32.6040    14.8380    24.8410 nd         1 WSO      -0.174800
     30 N07         31.7350    13.8780    24.6410 nc         1 WSO      -0.357000
     31 N10         30.0850    11.8420    23.6190 ns         1 WSO      -0.125000
     32 O13         28.7150    11.1820    25.8610 os         1 WSO      -0.374100
     33 O27         31.0280    12.0700    21.5210 o          1 WSO      -0.605100
     34 O31         35.9180    14.3140    23.4800 os         1 WSO      -0.330100
     35 H1          34.0400    19.8870    21.4980 hc         1 WSO       0.045367
     36 H2          33.4300    19.9980    23.1580 hc         1 WSO       0.045367
     37 H3          35.1010    20.4490    22.8010 hc         1 WSO       0.045367
     38 H4          32.7400    17.5800    23.1810 ha         1 WSO       0.134000
     39 H5          27.7210    10.0720    27.3400 h1         1 WSO       0.036700
     40 H6          28.3570    11.6040    29.1670 hc         1 WSO       0.047033
     41 H7          29.7930    11.1670    28.2300 hc         1 WSO       0.047033
     42 H8          29.0410    12.7630    28.0040 hc         1 WSO       0.047033
     43 H9          26.8640    12.9550    26.6540 hc         1 WSO       0.054200
     44 H10         26.1100    11.5230    25.9720 hc         1 WSO       0.054200
     45 H11         25.4290    10.7840    28.2900 hc         1 WSO       0.036700
     46 H12         26.1020    12.2780    28.9440 hc         1 WSO       0.036700
     47 H13         23.6470    12.4890    28.6490 hc         1 WSO       0.033033
     48 H14         24.4850    13.6250    27.5700 hc         1 WSO       0.033033
     49 H15         23.7960    12.1200    26.9180 hc         1 WSO       0.033033
     50 H16         26.8700     9.1930    25.5630 ha         1 WSO       0.116000
     51 H17         26.3770     8.0220    23.5070 ha         1 WSO       0.113000
     52 H18         26.7240     6.5120    21.7650 hc         1 WSO       0.035478
     53 H19         25.4860     7.7320    21.3690 hc         1 WSO       0.035478
     54 H20         26.2690     6.8060    20.0810 hc         1 WSO       0.035478
     55 H21         29.2110     6.9750    21.1950 hc         1 WSO       0.035478
     56 H22         28.6670     7.1330    19.5130 hc         1 WSO       0.035478
     57 H23         29.6440     8.4100    20.2480 hc         1 WSO       0.035478
     58 H24         26.1890     9.9500    20.2220 hc         1 WSO       0.035478
     59 H25         27.8620    10.1650    19.6730 hc         1 WSO       0.035478
     60 H26         26.8420     8.9290    18.9260 hc         1 WSO       0.035478
     61 H27         29.3460    10.3700    21.4200 ha         1 WSO       0.146000
     62 H28         33.8560    15.0200    20.9320 hc         1 WSO       0.067700
     63 H29         33.7200    13.2580    20.9630 hc         1 WSO       0.067700
     64 H30         32.3270    14.2530    20.5110 hc         1 WSO       0.067700
     65 H31         37.3380    12.7880    23.6130 h1         1 WSO       0.047033
     66 H32         37.6910    14.0330    22.3970 h1         1 WSO       0.047033
     67 H33         37.9100    14.3870    24.1320 h1         1 WSO       0.047033
     68 H34         37.5670    16.3880    22.8590 ha         1 WSO       0.125000
     69 H35         36.8470    18.7050    22.4630 ha         1 WSO       0.117000
     70 H36         30.1590    12.2390    24.5470 hn         1 WSO       0.193000
@<TRIPOS>BOND
     1     1     2 1   
     2     1    35 1   
     3     1    36 1   
     4     1    37 1   
     5     2     3 ar  
     6     2    27 ar  
     7     3     4 ar  
     8     3    38 1   
     9     4    24 ar  
    10     4    28 1   
    11     5     6 1   
    12     5    22 2   
    13     5    30 1   
    14     6    31 1   
    15     6    33 2   
    16     7     8 ar  
    17     7    21 ar  
    18     7    31 1   
    19     8    14 ar  
    20     8    32 1   
    21     9    10 1   
    22     9    11 1   
    23     9    32 1   
    24     9    39 1   
    25    10    40 1   
    26    10    41 1   
    27    10    42 1   
    28    11    12 1   
    29    11    43 1   
    30    11    44 1   
    31    12    13 1   
    32    12    45 1   
    33    12    46 1   
    34    13    47 1   
    35    13    48 1   
    36    13    49 1   
    37    14    15 ar  
    38    14    50 1   
    39    15    16 ar  
    40    15    51 1   
    41    16    17 1   
    42    16    21 ar  
    43    17    18 1   
    44    17    19 1   
    45    17    20 1   
    46    18    52 1   
    47    18    53 1   
    48    18    54 1   
    49    19    55 1   
    50    19    56 1   
    51    19    57 1   
    52    20    58 1   
    53    20    59 1   
    54    20    60 1   
    55    21    61 1   
    56    22    23 1   
    57    22    28 1   
    58    23    62 1   
    59    23    63 1   
    60    23    64 1   
    61    24    26 ar  
    62    24    34 1   
    63    25    34 1   
    64    25    65 1   
    65    25    66 1   
    66    25    67 1   
    67    26    27 ar  
    68    26    68 1   
    69    27    69 1   
    70    28    29 1   
    71    29    30 2   
    72    31    70 1   
@<TRIPOS>SUBSTRUCTURE
     1 WSO         1 TEMP              0 ****  ****    0 ROOT
