@<TRIPOS>MOLECULE
WSP
   37    39     1     0     0
SMALL
abcg2


@<TRIPOS>ATOM
      1 C8          55.9690   -20.9160    -0.5510 c6         1 WSP      -0.120300
      2 C5          57.5850   -18.5420    -1.2530 c6         1 WSP       0.112800
      3 C6          58.2550   -19.7560    -0.6430 c6         1 WSP      -0.104400
      4 C2          55.5650   -19.7910    -1.5180 c2         1 WSP       0.444300
      5 N3          56.2620   -18.7640    -1.7840 n2         1 WSP      -0.606900
      6 C1          54.2400   -19.8550    -2.2440 c3         1 WSP      -0.127400
      7 C7          57.2340   -20.4750     0.2170 c6         1 WSP      -0.069400
      8 C13         56.2240   -22.2290    -1.3320 c5         1 WSP       0.409000
      9 O17         57.1270   -22.0350    -2.4020 os         1 WSP      -0.468500
     10 C16         56.5190   -22.4050    -3.6240 c5         1 WSP       0.123600
     11 C15         55.3140   -23.2120    -3.1740 c5         1 WSP       0.123600
     12 O14         55.0100   -22.6280    -1.9270 os         1 WSP      -0.468500
     13 C12         56.7580   -23.3380    -0.4160 c6         1 WSP      -0.098400
     14 C11         56.0890   -23.3630     0.9670 c6         1 WSP      -0.065400
     15 C10         54.7420   -22.6520     0.9650 c6         1 WSP      -0.073400
     16 C9          54.8410   -21.1940     0.4920 c6         1 WSP      -0.056400
     17 H1          58.1940   -18.1210    -2.0580 h1         1 WSP       0.055700
     18 H2          57.5040   -17.7450    -0.5050 h1         1 WSP       0.055700
     19 H3          58.6480   -20.4090    -1.4210 hc         1 WSP       0.054700
     20 H4          59.1050   -19.4420    -0.0330 hc         1 WSP       0.054700
     21 H5          53.9150   -18.8430    -2.4830 hc         1 WSP       0.047700
     22 H6          54.3490   -20.3870    -3.1900 hc         1 WSP       0.047700
     23 H7          53.4480   -20.3540    -1.6940 hc         1 WSP       0.047700
     24 H8          57.6910   -21.3160     0.7350 hc         1 WSP       0.044700
     25 H9          56.9200   -19.7850     1.0060 hc         1 WSP       0.044700
     26 H10         57.2190   -22.9860    -4.2260 h1         1 WSP       0.056700
     27 H11         56.2220   -21.5190    -4.1950 h1         1 WSP       0.056700
     28 H12         54.4520   -23.1130    -3.8340 h1         1 WSP       0.056700
     29 H13         55.5550   -24.2780    -3.0730 h1         1 WSP       0.056700
     30 H14         56.6050   -24.2920    -0.9280 hc         1 WSP       0.053200
     31 H15         57.8390   -23.2290    -0.3100 hc         1 WSP       0.053200
     32 H16         55.9630   -24.3960     1.2970 hc         1 WSP       0.038700
     33 H17         56.7390   -22.8920     1.7090 hc         1 WSP       0.038700
     34 H18         54.3150   -22.6690     1.9690 hc         1 WSP       0.045200
     35 H19         54.0460   -23.2020     0.3300 hc         1 WSP       0.045200
     36 H20         55.0250   -20.5490     1.3530 hc         1 WSP       0.044200
     37 H21         53.8670   -20.8950     0.1100 hc         1 WSP       0.044200
@<TRIPOS>BOND
     1     1     4 1   
     2     1     7 1   
     3     1     8 1   
     4     1    16 1   
     5     2     3 1   
     6     2     5 1   
     7     2    17 1   
     8     2    18 1   
     9     3     7 1   
    10     3    19 1   
    11     3    20 1   
    12     4     5 2   
    13     4     6 1   
    14     6    21 1   
    15     6    22 1   
    16     6    23 1   
    17     7    24 1   
    18     7    25 1   
    19     8     9 1   
    20     8    12 1   
    21     8    13 1   
    22     9    10 1   
    23    10    11 1   
    24    10    26 1   
    25    10    27 1   
    26    11    12 1   
    27    11    28 1   
    28    11    29 1   
    29    13    14 1   
    30    13    30 1   
    31    13    31 1   
    32    14    15 1   
    33    14    32 1   
    34    14    33 1   
    35    15    16 1   
    36    15    34 1   
    37    15    35 1   
    38    16    36 1   
    39    16    37 1   
@<TRIPOS>SUBSTRUCTURE
     1 WSP         1 TEMP              0 ****  ****    0 ROOT
