@<TRIPOS>MOLECULE
WSP
   37    39     1     0     0
SMALL
No Charge or Current Charge


@<TRIPOS>ATOM
      1 C8          55.9550   -20.8400    -0.5320 c6         1 WSP      -0.120300
      2 C5          57.5240   -18.3300    -1.1220 c6         1 WSP       0.112800
      3 C6          58.2500   -19.6160    -0.7040 c6         1 WSP      -0.104400
      4 C2          55.4850   -19.6330    -1.4160 c2         1 WSP       0.444300
      5 N3          56.1700   -18.5560    -1.6590 n2         1 WSP      -0.606900
      6 C1          54.1290   -19.7040    -2.1120 c3         1 WSP      -0.127400
      7 C7          57.3150   -20.4480     0.1860 c6         1 WSP      -0.069400
      8 C13         56.1390   -22.1240    -1.4470 c5         1 WSP       0.409000
      9 O17         57.0080   -21.8490    -2.5590 os         1 WSP      -0.468500
     10 C16         56.7400   -22.8580    -3.5570 c5         1 WSP       0.123600
     11 C15         55.2580   -23.2490    -3.2850 c5         1 WSP       0.123600
     12 O14         54.9090   -22.4730    -2.1140 os         1 WSP      -0.468500
     13 C12         56.6620   -23.3600    -0.6150 c6         1 WSP      -0.098400
     14 C11         56.0960   -23.4400     0.8340 c6         1 WSP      -0.065400
     15 C10         54.7660   -22.6740     0.9760 c6         1 WSP      -0.073400
     16 C9          54.9020   -21.1660     0.6140 c6         1 WSP      -0.056400
     17 H1          58.1250   -17.8170    -1.8870 h1         1 WSP       0.055700
     18 H2          57.4450   -17.6500    -0.2600 h1         1 WSP       0.055700
     19 H3          58.5700   -20.1800    -1.5880 hc         1 WSP       0.054700
     20 H4          59.1660   -19.3600    -0.1550 hc         1 WSP       0.054700
     21 H5          53.6460   -18.7200    -2.1320 hc         1 WSP       0.047700
     22 H6          54.2560   -20.0220    -3.1530 hc         1 WSP       0.047700
     23 H7          53.4210   -20.3960    -1.6510 hc         1 WSP       0.047700
     24 H8          57.8670   -21.3160     0.5600 hc         1 WSP       0.044700
     25 H9          57.1110   -19.8380     1.0770 hc         1 WSP       0.044700
     26 H10         57.4180   -23.7100    -3.4120 h1         1 WSP       0.056700
     27 H11         56.8950   -22.4420    -4.5610 h1         1 WSP       0.056700
     28 H12         54.5920   -22.9800    -4.1160 h1         1 WSP       0.056700
     29 H13         55.1470   -24.3200    -3.0720 h1         1 WSP       0.056700
     30 H14         56.4110   -24.2980    -1.1250 hc         1 WSP       0.053200
     31 H15         57.7590   -23.3440    -0.5750 hc         1 WSP       0.053200
     32 H16         55.9510   -24.4930     1.1140 hc         1 WSP       0.038700
     33 H17         56.8240   -23.0420     1.5530 hc         1 WSP       0.038700
     34 H18         54.3840   -22.7750     2.0010 hc         1 WSP       0.045200
     35 H19         54.0100   -23.1420     0.3300 hc         1 WSP       0.045200
     36 H20         55.1480   -20.6130     1.5300 hc         1 WSP       0.044200
     37 H21         53.9010   -20.8000     0.3680 hc         1 WSP       0.044200
@<TRIPOS>BOND
     1     1     4 1   
     2     1     7 1   
     3     1     8 1   
     4     1    16 1   
     5     2     3 1   
     6     2     5 1   
     7     2    17 1   
     8     2    18 1   
     9     3     7 1   
    10     3    19 1   
    11     3    20 1   
    12     4     5 2   
    13     4     6 1   
    14     6    21 1   
    15     6    22 1   
    16     6    23 1   
    17     7    24 1   
    18     7    25 1   
    19     8     9 1   
    20     8    12 1   
    21     8    13 1   
    22     9    10 1   
    23    10    11 1   
    24    10    26 1   
    25    10    27 1   
    26    11    12 1   
    27    11    28 1   
    28    11    29 1   
    29    13    14 1   
    30    13    30 1   
    31    13    31 1   
    32    14    15 1   
    33    14    32 1   
    34    14    33 1   
    35    15    16 1   
    36    15    34 1   
    37    15    35 1   
    38    16    36 1   
    39    16    37 1   
@<TRIPOS>SUBSTRUCTURE
     1 WSP         1 TEMP              0 ****  ****    0 ROOT
