@<TRIPOS>MOLECULE
WSR
   72    75     1     0     0
SMALL
No Charge or Current Charge


@<TRIPOS>ATOM
      1 C4           0.0000     0.0000     0.0000 c3         1 WSR      -0.068400
      2 C5           0.0000     0.0000     0.0000 c3         1 WSR      -0.045700
      3 C6           0.0000     0.0000     0.0000 c3         1 WSR      -0.088100
      4 C7           0.0000     0.0000     0.0000 c5         1 WSR      -0.057700
      5 C8           0.0000     0.0000     0.0000 c5         1 WSR      -0.077400
      6 C10          0.0000     0.0000     0.0000 c5         1 WSR      -0.064700
      7 C13          0.0000     0.0000     0.0000 c6         1 WSR      -0.066400
      8 C15          0.0000     0.0000     0.0000 c6         1 WSR      -0.080400
      9 C17          0.0000     0.0000     0.0000 c6         1 WSR      -0.097400
     10 C20          0.0000     0.0000     0.0000 c3         1 WSR      -0.083100
     11 C21          0.0000     0.0000     0.0000 c6         1 WSR      -0.047700
     12 C22          0.0000     0.0000     0.0000 c6         1 WSR      -0.069400
     13 C24          0.0000     0.0000     0.0000 c5         1 WSR      -0.039000
     14 C1           0.0000     0.0000     0.0000 c3         1 WSR       0.070600
     15 C11          0.0000     0.0000     0.0000 c6         1 WSR      -0.042700
     16 C12          0.0000     0.0000     0.0000 c6         1 WSR      -0.068400
     17 C14          0.0000     0.0000     0.0000 c6         1 WSR      -0.052700
     18 C16          0.0000     0.0000     0.0000 c6         1 WSR       0.230300
     19 C18          0.0000     0.0000     0.0000 c6         1 WSR      -0.067400
     20 C19          0.0000     0.0000     0.0000 c6         1 WSR      -0.032000
     21 C2           0.0000     0.0000     0.0000 c          1 WSR       0.546100
     22 C23          0.0000     0.0000     0.0000 c6         1 WSR      -0.063400
     23 C25          0.0000     0.0000     0.0000 c3         1 WSR      -0.076100
     24 C3           0.0000     0.0000     0.0000 c3         1 WSR      -0.172400
     25 C9           0.0000     0.0000     0.0000 c5         1 WSR      -0.070400
     26 O1           0.0000     0.0000     0.0000 o          1 WSR      -0.520100
     27 O2           0.0000     0.0000     0.0000 os         1 WSR      -0.614700
     28 O3           0.0000     0.0000     0.0000 o          1 WSR      -0.720867
     29 O4           0.0000     0.0000     0.0000 o          1 WSR      -0.720867
     30 O5           0.0000     0.0000     0.0000 o          1 WSR      -0.720867
     31 S1           0.0000     0.0000     0.0000 s6         1 WSR       1.519300
     32 H1           0.0000     0.0000     0.0000 hc         1 WSR       0.048200
     33 H2           0.0000     0.0000     0.0000 hc         1 WSR       0.048200
     34 H3           0.0000     0.0000     0.0000 hc         1 WSR       0.045700
     35 H4           0.0000     0.0000     0.0000 hc         1 WSR       0.034367
     36 H5           0.0000     0.0000     0.0000 hc         1 WSR       0.034367
     37 H6           0.0000     0.0000     0.0000 hc         1 WSR       0.034367
     38 H7           0.0000     0.0000     0.0000 hc         1 WSR       0.047700
     39 H8           0.0000     0.0000     0.0000 hc         1 WSR       0.035700
     40 H9           0.0000     0.0000     0.0000 hc         1 WSR       0.035700
     41 H10          0.0000     0.0000     0.0000 hc         1 WSR       0.049700
     42 H11          0.0000     0.0000     0.0000 hc         1 WSR       0.033200
     43 H12          0.0000     0.0000     0.0000 hc         1 WSR       0.033200
     44 H13          0.0000     0.0000     0.0000 hc         1 WSR       0.051700
     45 H14          0.0000     0.0000     0.0000 hc         1 WSR       0.051700
     46 H15          0.0000     0.0000     0.0000 hc         1 WSR       0.060700
     47 H16          0.0000     0.0000     0.0000 hc         1 WSR       0.060700
     48 H17          0.0000     0.0000     0.0000 hc         1 WSR       0.026033
     49 H18          0.0000     0.0000     0.0000 hc         1 WSR       0.026033
     50 H19          0.0000     0.0000     0.0000 hc         1 WSR       0.026033
     51 H20          0.0000     0.0000     0.0000 hc         1 WSR       0.061700
     52 H21          0.0000     0.0000     0.0000 hc         1 WSR       0.038700
     53 H22          0.0000     0.0000     0.0000 hc         1 WSR       0.038700
     54 H23          0.0000     0.0000     0.0000 h1         1 WSR       0.070200
     55 H24          0.0000     0.0000     0.0000 h1         1 WSR       0.070200
     56 H26          0.0000     0.0000     0.0000 hc         1 WSR       0.040700
     57 H27          0.0000     0.0000     0.0000 hc         1 WSR       0.035700
     58 H28          0.0000     0.0000     0.0000 hc         1 WSR       0.035700
     59 H29          0.0000     0.0000     0.0000 hc         1 WSR       0.044700
     60 H30          0.0000     0.0000     0.0000 h1         1 WSR       0.047700
     61 H31          0.0000     0.0000     0.0000 hc         1 WSR       0.033200
     62 H32          0.0000     0.0000     0.0000 hc         1 WSR       0.033200
     63 H33          0.0000     0.0000     0.0000 hc         1 WSR       0.038200
     64 H34          0.0000     0.0000     0.0000 hc         1 WSR       0.038200
     65 H35          0.0000     0.0000     0.0000 hc         1 WSR       0.029700
     66 H36          0.0000     0.0000     0.0000 hc         1 WSR       0.029700
     67 H37          0.0000     0.0000     0.0000 hc         1 WSR       0.029700
     68 H38          0.0000     0.0000     0.0000 hc         1 WSR       0.071200
     69 H39          0.0000     0.0000     0.0000 hc         1 WSR       0.071200
     70 H40          0.0000     0.0000     0.0000 hc         1 WSR       0.040700
     71 H41          0.0000     0.0000     0.0000 hc         1 WSR       0.040700
     72 F1           0.0000     0.0000     0.0000 f          1 WSR      -0.261000
@<TRIPOS>BOND
     1     1     2 1   
     2     1    24 1   
     3     1    32 1   
     4     1    33 1   
     5     2     3 1   
     6     2     4 1   
     7     2    34 1   
     8     3    35 1   
     9     3    36 1   
    10     3    37 1   
    11     4     5 1   
    12     4    13 1   
    13     4    38 1   
    14     5    25 1   
    15     5    39 1   
    16     5    40 1   
    17     6    13 1   
    18     6    15 1   
    19     6    25 1   
    20     6    41 1   
    21     7    16 1   
    22     7    17 1   
    23     7    42 1   
    24     7    43 1   
    25     8    17 1   
    26     8    18 1   
    27     8    44 1   
    28     8    45 1   
    29     9    18 1   
    30     9    19 1   
    31     9    46 1   
    32     9    47 1   
    33    10    20 1   
    34    10    48 1   
    35    10    49 1   
    36    10    50 1   
    37    11    12 1   
    38    11    15 1   
    39    11    20 1   
    40    11    51 1   
    41    12    22 1   
    42    12    52 1   
    43    12    53 1   
    44    13    22 1   
    45    13    23 1   
    46    14    21 1   
    47    14    54 1   
    48    14    55 1   
    49    14    72 1   
    50    15    16 1   
    51    15    56 1   
    52    16    57 1   
    53    16    58 1   
    54    17    20 1   
    55    17    59 1   
    56    18    27 1   
    57    18    60 1   
    58    19    20 1   
    59    19    61 1   
    60    19    62 1   
    61    21    24 1   
    62    21    26 2   
    63    22    63 1   
    64    22    64 1   
    65    23    65 1   
    66    23    66 1   
    67    23    67 1   
    68    24    68 1   
    69    24    69 1   
    70    25    70 1   
    71    25    71 1   
    72    27    31 1   
    73    28    31 1   
    74    29    31 1   
    75    30    31 1   
@<TRIPOS>SUBSTRUCTURE
     1 WSR         1 TEMP              0 ****  ****    0 ROOT
