@<TRIPOS>MOLECULE
WSR
   72    75     1     0     0
SMALL
abcg2


@<TRIPOS>ATOM
      1 C4          30.3360   -39.1760   -15.7720 c3         1 WSR      -0.068400
      2 C5          28.9650   -39.1640   -16.4700 c3         1 WSR      -0.045700
      3 C6          29.1220   -39.4440   -17.9650 c3         1 WSR      -0.088100
      4 C7          28.0220   -40.1540   -15.7620 c5         1 WSR      -0.057700
      5 C8          27.8310   -39.8190   -14.2510 c5         1 WSR      -0.077400
      6 C10         25.9390   -41.0740   -15.0830 c5         1 WSR      -0.064700
      7 C13         22.4590   -42.5630   -14.1840 c6         1 WSR      -0.066400
      8 C15         22.8870   -44.7910   -15.3000 c6         1 WSR      -0.080400
      9 C17         23.2690   -44.9400   -17.7770 c6         1 WSR      -0.097400
     10 C20         21.8780   -41.4160   -16.9800 c3         1 WSR      -0.083100
     11 C21         24.2530   -42.2370   -16.5080 c6         1 WSR      -0.047700
     12 C22         24.9000   -41.5770   -17.7320 c6         1 WSR      -0.069400
     13 C24         26.5640   -40.3190   -16.2810 c5         1 WSR      -0.039000
     14 C1          32.4760   -37.4660   -14.0290 c3         1 WSR       0.070600
     15 C11         24.4550   -41.3880   -15.2310 c6         1 WSR      -0.042700
     16 C12         23.9080   -42.1160   -14.0000 c6         1 WSR      -0.068400
     17 C14         22.2590   -43.3950   -15.4560 c6         1 WSR      -0.052700
     18 C16         22.7220   -45.6390   -16.5470 c6         1 WSR       0.230300
     19 C18         22.5930   -43.5810   -17.9340 c6         1 WSR      -0.067400
     20 C19         22.7660   -42.6440   -16.7200 c6         1 WSR      -0.032000
     21 C2          32.5380   -38.0560   -15.4270 c          1 WSR       0.546100
     22 C23         26.3740   -41.2090   -17.5150 c6         1 WSR      -0.063400
     23 C25         25.9200   -38.9410   -16.5050 c3         1 WSR      -0.076100
     24 C3          31.2960   -38.0750   -16.2670 c3         1 WSR      -0.172400
     25 C9          26.4100   -40.2870   -13.8600 c5         1 WSR      -0.070400
     26 O1          33.6010   -38.5250   -15.7890 o          1 WSR      -0.520100
     27 O2          23.4320   -46.8930   -16.3300 os         1 WSR      -0.614700
     28 O3          23.6930   -49.2620   -16.4570 o          1 WSR      -0.720867
     29 O4          21.4930   -48.3480   -15.8870 o          1 WSR      -0.720867
     30 O5          22.3400   -48.1440   -18.1630 o          1 WSR      -0.720867
     31 S1          22.6730   -48.2640   -16.7450 s6         1 WSR       1.519300
     32 H1          30.1950   -39.0550   -14.6980 hc         1 WSR       0.048200
     33 H2          30.8090   -40.1530   -15.9210 hc         1 WSR       0.048200
     34 H3          28.5490   -38.1580   -16.3490 hc         1 WSR       0.045700
     35 H4          29.8540   -38.7750   -18.4190 hc         1 WSR       0.034367
     36 H5          29.4580   -40.4710   -18.1320 hc         1 WSR       0.034367
     37 H6          28.1860   -39.3060   -18.5020 hc         1 WSR       0.034367
     38 H7          28.4850   -41.1460   -15.8350 hc         1 WSR       0.047700
     39 H8          28.5910   -40.3100   -13.6440 hc         1 WSR       0.035700
     40 H9          27.9480   -38.7450   -14.0890 hc         1 WSR       0.035700
     41 H10         26.4540   -42.0440   -15.0520 hc         1 WSR       0.049700
     42 H11         21.8140   -41.6810   -14.2230 hc         1 WSR       0.033200
     43 H12         22.1320   -43.1440   -13.3160 hc         1 WSR       0.033200
     44 H13         22.4200   -45.3000   -14.4530 hc         1 WSR       0.051700
     45 H14         23.9530   -44.7170   -15.0780 hc         1 WSR       0.051700
     46 H15         23.0900   -45.5570   -18.6580 hc         1 WSR       0.060700
     47 H16         24.3510   -44.8290   -17.6710 hc         1 WSR       0.060700
     48 H17         21.9590   -40.6600   -16.2010 hc         1 WSR       0.026033
     49 H18         22.1340   -40.9440   -17.9300 hc         1 WSR       0.026033
     50 H19         20.8310   -41.7240   -17.0370 hc         1 WSR       0.026033
     51 H20         24.8170   -43.1590   -16.3310 hc         1 WSR       0.061700
     52 H21         24.3420   -40.6800   -18.0110 hc         1 WSR       0.038700
     53 H22         24.8390   -42.2520   -18.5880 hc         1 WSR       0.038700
     54 H23         32.6380   -38.2620   -13.2980 h1         1 WSR       0.070200
     55 H24         33.2570   -36.7110   -13.9250 h1         1 WSR       0.070200
     56 H26         23.9070   -40.4460   -15.3360 hc         1 WSR       0.040700
     57 H27         24.5430   -42.9850   -13.7950 hc         1 WSR       0.035700
     58 H28         23.9830   -41.4680   -13.1230 hc         1 WSR       0.035700
     59 H29         21.1820   -43.5470   -15.5930 hc         1 WSR       0.044700
     60 H30         21.6630   -45.8650   -16.6950 h1         1 WSR       0.047700
     61 H31         22.9450   -43.0900   -18.8420 hc         1 WSR       0.033200
     62 H32         21.5180   -43.7430   -18.0750 hc         1 WSR       0.033200
     63 H33         26.9580   -42.1250   -17.3730 hc         1 WSR       0.038200
     64 H34         26.7520   -40.7300   -18.4180 hc         1 WSR       0.038200
     65 H35         26.0820   -38.2750   -15.6580 hc         1 WSR       0.029700
     66 H36         26.3480   -38.4620   -17.3870 hc         1 WSR       0.029700
     67 H37         24.8450   -39.0140   -16.6640 hc         1 WSR       0.029700
     68 H38         31.5990   -38.2440   -17.2980 hc         1 WSR       0.071200
     69 H39         30.7950   -37.1070   -16.1940 hc         1 WSR       0.071200
     70 H40         25.7520   -39.4340   -13.6780 hc         1 WSR       0.040700
     71 H41         26.4100   -40.8900   -12.9520 hc         1 WSR       0.040700
     72 F1          31.2460   -36.8640   -13.7520 f          1 WSR      -0.261000
@<TRIPOS>BOND
     1     1     2 1   
     2     1    24 1   
     3     1    32 1   
     4     1    33 1   
     5     2     3 1   
     6     2     4 1   
     7     2    34 1   
     8     3    35 1   
     9     3    36 1   
    10     3    37 1   
    11     4     5 1   
    12     4    13 1   
    13     4    38 1   
    14     5    25 1   
    15     5    39 1   
    16     5    40 1   
    17     6    13 1   
    18     6    15 1   
    19     6    25 1   
    20     6    41 1   
    21     7    16 1   
    22     7    17 1   
    23     7    42 1   
    24     7    43 1   
    25     8    17 1   
    26     8    18 1   
    27     8    44 1   
    28     8    45 1   
    29     9    18 1   
    30     9    19 1   
    31     9    46 1   
    32     9    47 1   
    33    10    20 1   
    34    10    48 1   
    35    10    49 1   
    36    10    50 1   
    37    11    12 1   
    38    11    15 1   
    39    11    20 1   
    40    11    51 1   
    41    12    22 1   
    42    12    52 1   
    43    12    53 1   
    44    13    22 1   
    45    13    23 1   
    46    14    21 1   
    47    14    54 1   
    48    14    55 1   
    49    14    72 1   
    50    15    16 1   
    51    15    56 1   
    52    16    57 1   
    53    16    58 1   
    54    17    20 1   
    55    17    59 1   
    56    18    27 1   
    57    18    60 1   
    58    19    20 1   
    59    19    61 1   
    60    19    62 1   
    61    21    24 1   
    62    21    26 2   
    63    22    63 1   
    64    22    64 1   
    65    23    65 1   
    66    23    66 1   
    67    23    67 1   
    68    24    68 1   
    69    24    69 1   
    70    25    70 1   
    71    25    71 1   
    72    27    31 1   
    73    28    31 1   
    74    29    31 1   
    75    30    31 1   
@<TRIPOS>SUBSTRUCTURE
     1 WSR         1 TEMP              0 ****  ****    0 ROOT
