@<TRIPOS>MOLECULE
WST
   39    42     1     0     0
SMALL
No Charge or Current Charge


@<TRIPOS>ATOM
      1 C1           2.3570     0.1140     0.3250 ca         1 WST      -0.243300
      2 C2           3.7570     0.3030     0.4370 ca         1 WST       0.175100
      3 O3           4.5590    -0.6950     0.8990 oh         1 WST      -0.541100
      4 C4           4.3560     1.5220     0.0880 ca         1 WST      -0.178000
      5 C5           3.5770     2.5910    -0.3730 ca         1 WST      -0.047000
      6 C6           2.1870     2.4390    -0.4570 ca         1 WST      -0.176000
      7 C7           1.5800     1.2270    -0.0940 ca         1 WST       0.177100
      8 O8           0.2080     1.1700    -0.1510 os         1 WST      -0.342100
      9 C9          -0.4640     0.1740     0.6320 c6         1 WST       0.236600
     10 C11          0.1720    -1.2080     0.3810 c5         1 WST      -0.088700
     11 C13          1.7130    -1.2560     0.6630 c5         1 WST      -0.011400
     12 C15          2.2630    -2.3160    -0.3660 c5         1 WST      -0.081400
     13 C16          0.9930    -2.9880    -0.9460 c5         1 WST      -0.079400
     14 C17          0.0550    -1.7690    -1.0630 c5         1 WST      -0.071400
     15 C18         -1.9700     0.2000     0.3310 ca         1 WST      -0.121300
     16 C19         -2.4520     0.4720    -0.9680 ca         1 WST      -0.053500
     17 C20         -3.8350     0.4820    -1.2210 ca         1 WST      -0.178500
     18 C21         -4.7430     0.2210    -0.1860 ca         1 WST       0.144100
     19 O22         -6.0800     0.2330    -0.4430 oh         1 WST      -0.532100
     20 C23         -4.2720    -0.0520     1.1080 ca         1 WST      -0.178500
     21 C24         -2.8900    -0.0630     1.3660 ca         1 WST      -0.053500
     22 HO3          3.9850    -1.4590     1.1070 ho         1 WST       0.467000
     23 H4           5.4330     1.6390     0.1760 ha         1 WST       0.130000
     24 H5           4.0440     3.5350    -0.6460 ha         1 WST       0.117000
     25 H6           1.5710     3.2710    -0.7900 ha         1 WST       0.130000
     26 H9          -0.3160     0.4340     1.6910 h1         1 WST       0.051700
     27 H11         -0.3460    -1.8800     1.0760 hc         1 WST       0.057700
     28 H13          1.9040    -1.5510     1.7020 hc         1 WST       0.047700
     29 H151         2.8380    -1.8470    -1.1740 hc         1 WST       0.049200
     30 H152         2.9240    -3.0520     0.1070 hc         1 WST       0.049200
     31 H161         1.1800    -3.4690    -1.9140 hc         1 WST       0.044200
     32 H162         0.5900    -3.7530    -0.2710 hc         1 WST       0.044200
     33 H171        -0.9700    -2.0590    -1.3210 hc         1 WST       0.055200
     34 H172         0.4000    -1.0560    -1.8220 hc         1 WST       0.055200
     35 H19         -1.7580     0.6730    -1.7810 ha         1 WST       0.120000
     36 H20         -4.2000     0.6920    -2.2230 ha         1 WST       0.122000
     37 HO22        -6.5580     0.0330     0.3900 ho         1 WST       0.464000
     38 H23         -4.9690    -0.2570     1.9170 ha         1 WST       0.122000
     39 H24         -2.5330    -0.2790     2.3710 ha         1 WST       0.120000
@<TRIPOS>BOND
     1     1     2 ar  
     2     1     7 ar  
     3     1    11 1   
     4     2     3 1   
     5     2     4 ar  
     6     3    22 1   
     7     4     5 ar  
     8     4    23 1   
     9     5     6 ar  
    10     5    24 1   
    11     6     7 ar  
    12     6    25 1   
    13     7     8 1   
    14     8     9 1   
    15     9    10 1   
    16     9    15 1   
    17     9    26 1   
    18    10    11 1   
    19    10    14 1   
    20    10    27 1   
    21    11    12 1   
    22    11    28 1   
    23    12    13 1   
    24    12    29 1   
    25    12    30 1   
    26    13    14 1   
    27    13    31 1   
    28    13    32 1   
    29    14    33 1   
    30    14    34 1   
    31    15    16 ar  
    32    15    21 ar  
    33    16    17 ar  
    34    16    35 1   
    35    17    18 ar  
    36    17    36 1   
    37    18    19 1   
    38    18    20 ar  
    39    19    37 1   
    40    20    21 ar  
    41    20    38 1   
    42    21    39 1   
@<TRIPOS>SUBSTRUCTURE
     1 WST         1 TEMP              0 ****  ****    0 ROOT
