@<TRIPOS>MOLECULE
WST
   39    42     1     0     0
SMALL
abcg2


@<TRIPOS>ATOM
      1 C1           2.3180     0.1280     0.3320 ca         1 WST      -0.243300
      2 C2           3.6960     0.3220     0.4940 ca         1 WST       0.175100
      3 O3           4.4980    -0.6510     0.9790 oh         1 WST      -0.541100
      4 C4           4.3050     1.5210     0.1400 ca         1 WST      -0.178000
      5 C5           3.5320     2.5490    -0.3780 ca         1 WST      -0.047000
      6 C6           2.1630     2.4060    -0.5160 ca         1 WST      -0.176000
      7 C7           1.5680     1.2010    -0.1500 ca         1 WST       0.177100
      8 O8           0.2250     1.1150    -0.2920 os         1 WST      -0.342100
      9 C9          -0.4230     0.1880     0.5640 c6         1 WST       0.236600
     10 C11          0.1610    -1.2040     0.3860 c5         1 WST      -0.088700
     11 C13          1.6910    -1.2180     0.6030 c5         1 WST      -0.011400
     12 C15          2.2220    -2.3130    -0.3710 c5         1 WST      -0.081400
     13 C16          0.9800    -2.9710    -0.9750 c5         1 WST      -0.079400
     14 C17         -0.0550    -1.8540    -0.9790 c5         1 WST      -0.071400
     15 C18         -1.9010     0.2410     0.2890 ca         1 WST      -0.121300
     16 C19         -2.4240     0.5910    -0.9520 ca         1 WST      -0.053500
     17 C20         -3.7910     0.5860    -1.1800 ca         1 WST      -0.178500
     18 C21         -4.6700     0.2230    -0.1620 ca         1 WST       0.144100
     19 O22         -5.9920     0.2360    -0.4320 oh         1 WST      -0.532100
     20 C23         -4.1590    -0.1320     1.0830 ca         1 WST      -0.178500
     21 C24         -2.7890    -0.1160     1.2970 ca         1 WST      -0.053500
     22 HO3          3.9870    -1.3960     1.3120 ho         1 WST       0.467000
     23 H4           5.3730     1.6390     0.2700 ha         1 WST       0.130000
     24 H5           4.0030     3.4810    -0.6610 ha         1 WST       0.117000
     25 H6           1.5520     3.2140    -0.8960 ha         1 WST       0.130000
     26 H9          -0.2510     0.4960     1.6060 h1         1 WST       0.051700
     27 H11         -0.2990    -1.8440     1.1450 hc         1 WST       0.057700
     28 H13          1.8900    -1.5080     1.6410 hc         1 WST       0.047700
     29 H151         2.8160    -1.8530    -1.1630 hc         1 WST       0.049200
     30 H152         2.8660    -3.0380     0.1300 hc         1 WST       0.049200
     31 H161         1.1710    -3.3890    -1.9640 hc         1 WST       0.044200
     32 H162         0.6330    -3.7900    -0.3390 hc         1 WST       0.044200
     33 H171        -1.0760    -2.2120    -1.1160 hc         1 WST       0.055200
     34 H172         0.1540    -1.1460    -1.7860 hc         1 WST       0.055200
     35 H19         -1.7690     0.8790    -1.7640 ha         1 WST       0.120000
     36 H20         -4.1810     0.8680    -2.1500 ha         1 WST       0.122000
     37 HO22        -6.4950    -0.0340     0.3440 ho         1 WST       0.464000
     38 H23         -4.8260    -0.4100     1.8920 ha         1 WST       0.122000
     39 H24         -2.4110    -0.3870     2.2770 ha         1 WST       0.120000
@<TRIPOS>BOND
     1     1     2 ar  
     2     1     7 ar  
     3     1    11 1   
     4     2     3 1   
     5     2     4 ar  
     6     3    22 1   
     7     4     5 ar  
     8     4    23 1   
     9     5     6 ar  
    10     5    24 1   
    11     6     7 ar  
    12     6    25 1   
    13     7     8 1   
    14     8     9 1   
    15     9    10 1   
    16     9    15 1   
    17     9    26 1   
    18    10    11 1   
    19    10    14 1   
    20    10    27 1   
    21    11    12 1   
    22    11    28 1   
    23    12    13 1   
    24    12    29 1   
    25    12    30 1   
    26    13    14 1   
    27    13    31 1   
    28    13    32 1   
    29    14    33 1   
    30    14    34 1   
    31    15    16 ar  
    32    15    21 ar  
    33    16    17 ar  
    34    16    35 1   
    35    17    18 ar  
    36    17    36 1   
    37    18    19 1   
    38    18    20 ar  
    39    19    37 1   
    40    20    21 ar  
    41    20    38 1   
    42    21    39 1   
@<TRIPOS>SUBSTRUCTURE
     1 WST         1 TEMP              0 ****  ****    0 ROOT
