@<TRIPOS>MOLECULE
WSW
   66    69     1     0     0
SMALL
No Charge or Current Charge


@<TRIPOS>ATOM
      1 N1         -35.1810   -31.2210   -69.4800 n3         1 WSW      -0.716600
      2 N3         -44.4730   -27.3200   -64.6910 nb         1 WSW      -0.304000
      3 C4         -35.0190   -32.5740   -68.8650 c6         1 WSW       0.132800
      4 C5         -34.2150   -30.2040   -68.9070 c6         1 WSW       0.173500
      5 C6         -34.3020   -28.7790   -69.5830 c3         1 WSW       0.157600
      6 C7         -36.6150   -30.7980   -69.5020 c3         1 WSW       0.222100
      7 C8         -37.2730   -30.6820   -68.1220 ca         1 WSW      -0.115300
      8 C10        -38.5660   -31.7050   -66.3050 ca         1 WSW      -0.126300
      9 C13        -42.2730   -32.4490   -67.9480 ca         1 WSW      -0.091000
     10 C17        -42.9970   -30.4500   -66.0570 cp         1 WSW      -0.124500
     11 C20        -43.4460   -28.4240   -62.8170 ca         1 WSW      -0.117000
     12 C21        -44.1670   -27.3530   -63.3720 ca         1 WSW       0.271900
     13 C22        -41.9290   -31.3560   -65.8090 ca         1 WSW      -0.112000
     14 C24        -37.8590   -29.3770   -66.1430 ca         1 WSW      -0.107000
     15 C1         -32.7330   -30.7290   -68.9800 c6         1 WSW       0.130300
     16 C11        -39.2860   -32.9150   -65.7190 c3         1 WSW       0.261100
     17 C12        -41.5630   -32.3420   -66.7420 ca         1 WSW       0.297000
     18 C14        -43.3350   -31.5650   -68.2340 ca         1 WSW      -0.233500
     19 C16        -43.6890   -30.5750   -67.2930 ca         1 WSW      -0.026000
     20 C18        -43.3780   -29.3900   -65.0540 cp         1 WSW       0.342500
     21 C19        -43.0430   -29.4660   -63.6750 ca         1 WSW      -0.110000
     22 C2         -32.5960   -32.1210   -68.3030 c6         1 WSW       0.175300
     23 C23        -38.5140   -30.4910   -65.5930 ca         1 WSW      -0.102000
     24 C25        -37.2450   -29.4700   -67.4020 ca         1 WSW      -0.097000
     25 C3         -33.5730   -33.1350   -68.9690 c6         1 WSW       0.171300
     26 C9         -37.9450   -31.7910   -67.5680 ca         1 WSW      -0.090000
     27 N2         -40.5040   -33.2230   -66.4910 nu         1 WSW      -0.959200
     28 N4         -44.0840   -28.3220   -65.5090 nb         1 WSW      -0.313000
     29 O1         -31.7860   -29.8120   -68.3720 oh         1 WSW      -0.738000
     30 O2         -31.2210   -32.5460   -68.3960 oh         1 WSW      -0.647000
     31 O3         -33.4970   -34.4380   -68.3420 oh         1 WSW      -0.707000
     32 O4         -33.9040   -28.7680   -70.9670 oh         1 WSW      -0.653000
     33 S1         -44.2500   -31.7080   -69.7870 sy         1 WSW       1.076500
     34 H2         -35.7020   -33.2860   -69.3520 h1         1 WSW       0.041700
     35 H3         -35.2970   -32.5400   -67.8020 h1         1 WSW       0.041700
     36 H4         -34.4560   -30.0580   -67.8430 h1         1 WSW       0.045700
     37 H5         -33.6690   -28.0870   -69.0120 h1         1 WSW       0.025200
     38 H6         -35.3220   -28.3900   -69.4890 h1         1 WSW       0.025200
     39 H7         -36.7390   -29.8490   -70.0380 h1         1 WSW       0.068200
     40 H8         -37.1920   -31.5280   -70.0860 h1         1 WSW       0.068200
     41 H10        -45.1140   -33.7950   -69.0580 h1         1 WSW       0.103367
     42 H11        -46.1620   -32.4120   -68.5700 h1         1 WSW       0.103367
     43 H12        -46.1810   -33.0000   -70.2730 h1         1 WSW       0.103367
     44 H13        -43.2130   -28.4420   -61.7560 ha         1 WSW       0.132000
     45 H14        -44.5070   -26.5180   -62.7610 h4         1 WSW       0.031100
     46 H15        -41.3680   -31.2860   -64.8850 ha         1 WSW       0.120000
     47 H16        -37.8290   -28.4400   -65.5920 ha         1 WSW       0.116000
     48 H17        -32.4860   -30.8610   -70.0450 h1         1 WSW       0.073700
     49 H18        -39.5390   -32.7230   -64.6660 h1         1 WSW       0.060700
     50 H19        -38.6040   -33.7780   -65.7310 h1         1 WSW       0.060700
     51 H20        -44.5160   -29.9020   -67.5170 ha         1 WSW       0.157000
     52 H21        -42.5000   -30.3160   -63.2730 ha         1 WSW       0.131000
     53 H22        -32.8800   -32.0150   -67.2450 h1         1 WSW       0.053700
     54 H23        -38.9850   -30.4060   -64.6170 ha         1 WSW       0.111000
     55 H24        -36.7510   -28.5950   -67.8150 ha         1 WSW       0.112000
     56 H25        -33.3120   -33.2140   -70.0360 h1         1 WSW       0.060700
     57 H26        -37.9870   -32.7270   -68.1200 ha         1 WSW       0.111000
     58 H27        -40.4010   -33.9700   -67.1790 hn         1 WSW       0.477000
     59 H28        -31.6800   -29.0560   -68.9980 ho         1 WSW       0.510000
     60 H29        -30.7100   -31.7160   -68.2510 ho         1 WSW       0.452000
     61 H30        -33.8800   -35.0840   -68.9800 ho         1 WSW       0.500000
     62 H31        -34.1230   -27.8780   -71.3220 ho         1 WSW       0.439000
     63 H9         -41.9920   -33.2160   -68.6650 ha         1 WSW       0.135000
     64 C15        -45.5680   -32.8510   -69.3780 c3         1 WSW      -0.340100
     65 O5         -44.8910   -30.4200   -70.0850 o          1 WSW      -0.527000
     66 O6         -43.4040   -32.3850   -70.7790 o          1 WSW      -0.527000
@<TRIPOS>BOND
     1     1     3 1   
     2     1     4 1   
     3     1     6 1   
     4     2    12 ar  
     5     2    28 ar  
     6     3    25 1   
     7     3    34 1   
     8     3    35 1   
     9     4     5 1   
    10     4    15 1   
    11     4    36 1   
    12     5    32 1   
    13     5    37 1   
    14     5    38 1   
    15     6     7 1   
    16     6    39 1   
    17     6    40 1   
    18     7    24 ar  
    19     7    26 ar  
    20     8    16 1   
    21     8    23 ar  
    22     8    26 ar  
    23     9    17 ar  
    24     9    18 ar  
    25     9    63 1   
    26    10    13 ar  
    27    10    19 ar  
    28    10    20 1   
    29    11    12 ar  
    30    11    21 ar  
    31    11    44 1   
    32    12    45 1   
    33    13    17 ar  
    34    13    46 1   
    35    14    23 ar  
    36    14    24 ar  
    37    14    47 1   
    38    15    22 1   
    39    15    29 1   
    40    15    48 1   
    41    16    27 1   
    42    16    49 1   
    43    16    50 1   
    44    17    27 1   
    45    18    19 ar  
    46    18    33 1   
    47    19    51 1   
    48    20    21 ar  
    49    20    28 ar  
    50    21    52 1   
    51    22    25 1   
    52    22    30 1   
    53    22    53 1   
    54    23    54 1   
    55    24    55 1   
    56    25    31 1   
    57    25    56 1   
    58    26    57 1   
    59    27    58 1   
    60    29    59 1   
    61    30    60 1   
    62    31    61 1   
    63    32    62 1   
    64    33    64 1   
    65    33    65 2   
    66    33    66 2   
    67    41    64 1   
    68    42    64 1   
    69    43    64 1   
@<TRIPOS>SUBSTRUCTURE
     1 WSW         1 TEMP              0 ****  ****    0 ROOT
