@<TRIPOS>MOLECULE
WSW
   66    69     1     0     0
SMALL
abcg2


@<TRIPOS>ATOM
      1 N1         -35.7040   -30.7400   -69.1240 n3         1 WSW      -0.716600
      2 N3         -43.8500   -27.1400   -65.9870 nb         1 WSW      -0.304000
      3 C4         -35.7400   -32.1880   -68.9550 c6         1 WSW       0.132800
      4 C5         -34.4790   -30.1490   -68.5780 c6         1 WSW       0.173500
      5 C6         -34.4100   -28.6380   -68.7570 c3         1 WSW       0.157600
      6 C7         -36.9710   -30.1130   -68.7080 c3         1 WSW       0.222100
      7 C8         -37.3560   -30.3170   -67.2540 ca         1 WSW      -0.115300
      8 C10        -38.4660   -31.6740   -65.5650 ca         1 WSW      -0.126300
      9 C13        -41.8530   -32.8410   -67.8920 ca         1 WSW      -0.091000
     10 C17        -42.6010   -30.5150   -66.5330 cp         1 WSW      -0.124500
     11 C20        -43.2170   -27.9720   -63.8380 ca         1 WSW      -0.117000
     12 C21        -43.7220   -26.9790   -64.6750 ca         1 WSW       0.271900
     13 C22        -41.6030   -31.3440   -66.0220 ca         1 WSW      -0.112000
     14 C24        -37.2920   -29.6650   -64.9250 ca         1 WSW      -0.107000
     15 C1         -33.2690   -30.8080   -69.2660 c6         1 WSW       0.130300
     16 C11        -39.2850   -32.8950   -65.1830 c3         1 WSW       0.261100
     17 C12        -41.2100   -32.5150   -66.6880 ca         1 WSW       0.297000
     18 C14        -42.8380   -32.0040   -68.3860 ca         1 WSW      -0.233500
     19 C16        -43.2310   -30.8410   -67.7350 ca         1 WSW      -0.026000
     20 C18        -42.9830   -29.2800   -65.8090 cp         1 WSW       0.342500
     21 C19        -42.8410   -29.1580   -64.4190 ca         1 WSW      -0.110000
     22 C2         -33.2790   -32.3240   -69.1460 c6         1 WSW       0.175300
     23 C23        -38.0460   -30.7810   -64.5810 ca         1 WSW      -0.102000
     24 C25        -36.9510   -29.4330   -66.2540 ca         1 WSW      -0.097000
     25 C3         -34.5830   -32.8730   -69.6730 c6         1 WSW       0.171300
     26 C9         -38.1200   -31.4260   -66.8890 ca         1 WSW      -0.090000
     27 N2         -40.2300   -33.3400   -66.1900 nu         1 WSW      -0.959200
     28 N4         -43.4770   -28.2830   -66.5510 nb         1 WSW      -0.313000
     29 O1         -32.0360   -30.3750   -68.6790 oh         1 WSW      -0.738000
     30 O2         -32.1880   -32.8860   -69.8680 oh         1 WSW      -0.647000
     31 O3         -34.6090   -34.2810   -69.4340 oh         1 WSW      -0.707000
     32 O4         -34.5210   -28.3050   -70.1420 oh         1 WSW      -0.653000
     33 S1         -43.6460   -32.4480   -69.9060 sy         1 WSW       1.076500
     34 H2         -36.6800   -32.5590   -69.3670 h1         1 WSW       0.041700
     35 H3         -35.7070   -32.4890   -67.8960 h1         1 WSW       0.041700
     36 H4         -34.3850   -30.3380   -67.4940 h1         1 WSW       0.045700
     37 H5         -33.4530   -28.2980   -68.3510 h1         1 WSW       0.025200
     38 H6         -35.1960   -28.1430   -68.1850 h1         1 WSW       0.025200
     39 H7         -36.9230   -29.0520   -68.9410 h1         1 WSW       0.068200
     40 H8         -37.7500   -30.5450   -69.3390 h1         1 WSW       0.068200
     41 H10        -44.7130   -34.2630   -68.8430 h1         1 WSW       0.103367
     42 H11        -45.6880   -32.7570   -68.7630 h1         1 WSW       0.103367
     43 H12        -45.5880   -33.6810   -70.2980 h1         1 WSW       0.103367
     44 H13        -43.1370   -27.8080   -62.7720 ha         1 WSW       0.132000
     45 H14        -44.0430   -26.0200   -64.2870 h4         1 WSW       0.031100
     46 H15        -41.1010   -31.0630   -65.1090 ha         1 WSW       0.120000
     47 H16        -36.9800   -28.9660   -64.1590 ha         1 WSW       0.116000
     48 H17        -33.2840   -30.5440   -70.3250 h1         1 WSW       0.073700
     49 H18        -39.8080   -32.6950   -64.2450 h1         1 WSW       0.060700
     50 H19        -38.6180   -33.7370   -64.9890 h1         1 WSW       0.060700
     51 H20        -43.9970   -30.2030   -68.1470 ha         1 WSW       0.157000
     52 H21        -42.4640   -29.9790   -63.8250 ha         1 WSW       0.131000
     53 H22        -33.1960   -32.5890   -68.0820 h1         1 WSW       0.053700
     54 H23        -38.3250   -30.9510   -63.5470 ha         1 WSW       0.111000
     55 H24        -36.3830   -28.5480   -66.5090 ha         1 WSW       0.112000
     56 H25        -34.6440   -32.6730   -70.7480 h1         1 WSW       0.060700
     57 H26        -38.4640   -32.1020   -67.6620 ha         1 WSW       0.111000
     58 H27        -39.8870   -34.0360   -66.8330 hn         1 WSW       0.477000
     59 H28        -31.7060   -29.6110   -69.1650 ho         1 WSW       0.510000
     60 H29        -31.4020   -32.3860   -69.6050 ho         1 WSW       0.452000
     61 H30        -35.4020   -34.6420   -69.8510 ho         1 WSW       0.500000
     62 H31        -34.3860   -27.3540   -70.2310 ho         1 WSW       0.439000
     63 H9         -41.5640   -33.7300   -68.4380 ha         1 WSW       0.135000
     64 C15        -45.0610   -33.3890   -69.3890 c3         1 WSW      -0.340100
     65 O5         -44.1130   -31.2330   -70.5500 o          1 WSW      -0.527000
     66 O6         -42.7660   -33.3250   -70.6590 o          1 WSW      -0.527000
@<TRIPOS>BOND
     1     1     3 1   
     2     1     4 1   
     3     1     6 1   
     4     2    12 ar  
     5     2    28 ar  
     6     3    25 1   
     7     3    34 1   
     8     3    35 1   
     9     4     5 1   
    10     4    15 1   
    11     4    36 1   
    12     5    32 1   
    13     5    37 1   
    14     5    38 1   
    15     6     7 1   
    16     6    39 1   
    17     6    40 1   
    18     7    24 ar  
    19     7    26 ar  
    20     8    16 1   
    21     8    23 ar  
    22     8    26 ar  
    23     9    17 ar  
    24     9    18 ar  
    25     9    63 1   
    26    10    13 ar  
    27    10    19 ar  
    28    10    20 1   
    29    11    12 ar  
    30    11    21 ar  
    31    11    44 1   
    32    12    45 1   
    33    13    17 ar  
    34    13    46 1   
    35    14    23 ar  
    36    14    24 ar  
    37    14    47 1   
    38    15    22 1   
    39    15    29 1   
    40    15    48 1   
    41    16    27 1   
    42    16    49 1   
    43    16    50 1   
    44    17    27 1   
    45    18    19 ar  
    46    18    33 1   
    47    19    51 1   
    48    20    21 ar  
    49    20    28 ar  
    50    21    52 1   
    51    22    25 1   
    52    22    30 1   
    53    22    53 1   
    54    23    54 1   
    55    24    55 1   
    56    25    31 1   
    57    25    56 1   
    58    26    57 1   
    59    27    58 1   
    60    29    59 1   
    61    30    60 1   
    62    31    61 1   
    63    32    62 1   
    64    33    64 1   
    65    33    65 2   
    66    33    66 2   
    67    41    64 1   
    68    42    64 1   
    69    43    64 1   
@<TRIPOS>SUBSTRUCTURE
     1 WSW         1 TEMP              0 ****  ****    0 ROOT
