@<TRIPOS>MOLECULE
WSX
   74    76     1     0     0
SMALL
abcg2


@<TRIPOS>ATOM
      1 C14         15.3020    36.0690    22.7400 ca         1 WSX      -0.125000
      2 C10         13.6620    31.5970    26.1080 c3         1 WSX      -0.073400
      3 C13         15.0690    35.4100    23.9410 ca         1 WSX      -0.109000
      4 C31          5.7620    28.5750    22.5770 ca         1 WSX      -0.157000
      5 C32          5.9670    27.4180    23.3060 ca         1 WSX      -0.093000
      6 C33          7.1420    27.2170    24.0290 ca         1 WSX       0.114100
      7 C36          8.1210    28.2030    23.9990 ca         1 WSX      -0.138000
      8 C02         11.4780    32.6270    22.2400 c          1 WSX       0.554600
      9 C04         13.2040    34.2610    22.9490 ca         1 WSX      -0.034000
     10 C05         14.0330    34.5030    24.0560 ca         1 WSX       0.053100
     11 C07         14.5460    32.6670    25.4730 c3         1 WSX       0.180300
     12 C08         15.8270    33.0030    26.2410 c3         1 WSX      -0.091400
     13 C09         15.7040    34.0070    27.3810 c3         1 WSX      -0.081100
     14 C11         13.1170    31.7950    27.5210 c3         1 WSX      -0.061400
     15 C12         12.1190    32.9340    27.6900 c3         1 WSX      -0.089100
     16 C15         14.5000    35.8390    21.6280 ca         1 WSX      -0.046300
     17 C16         14.7330    36.5250    20.2850 c3         1 WSX       0.001300
     18 C17         15.8610    37.5550    20.3530 c3         1 WSX      -0.083433
     19 C18         15.1110    35.4640    19.2430 c3         1 WSX      -0.083433
     20 C19         13.4550    37.2480    19.8380 c3         1 WSX      -0.083433
     21 C20         13.4450    34.9340    21.7570 ca         1 WSX      -0.125000
     22 C21         10.4440    31.7730    22.8490 cc         1 WSX       0.108500
     23 C22          9.6410    30.8290    22.2450 cd         1 WSX      -0.062300
     24 C23          9.5420    30.3360    20.8520 c3         1 WSX      -0.028800
     25 C27          7.9050    29.3610    23.2650 ca         1 WSX      -0.018200
     26 C28          6.7290    29.5790    22.5520 ca         1 WSX       0.121100
     27 C35          8.4230    25.8270    25.4570 c3         1 WSX       0.144900
     28 N03         12.1410    33.3790    23.1500 ns         1 WSX      -0.132000
     29 N24          8.9050    30.3640    23.2740 na         1 WSX       0.215000
     30 N25          9.2260    30.9650    24.4230 nd         1 WSX      -0.178800
     31 N26         10.1500    31.8070    24.1690 nc         1 WSX      -0.353000
     32 O01         11.6880    32.6250    21.0390 o          1 WSX      -0.600100
     33 O06         13.7640    33.8510    25.2200 os         1 WSX      -0.370100
     34 O29          6.6170    30.7470    21.9000 os         1 WSX      -0.332100
     35 H1          16.1260    36.7680    22.6950 ha         1 WSX       0.114000
     36 H2          12.8250    31.4020    25.4290 hc         1 WSX       0.043200
     37 H3          14.2600    30.6810    26.1000 hc         1 WSX       0.043200
     38 H4          15.7000    35.6130    24.7970 ha         1 WSX       0.121000
     39 H5           4.8310    28.6860    22.0380 ha         1 WSX       0.128000
     40 H6           5.2000    26.6540    23.3160 ha         1 WSX       0.134000
     41 H7           9.0580    28.0990    24.5280 ha         1 WSX       0.140000
     42 H8          14.8500    32.2540    24.5030 h1         1 WSX       0.036700
     43 H9          16.2370    32.0620    26.6170 hc         1 WSX       0.039200
     44 H10         16.5670    33.3820    25.5310 hc         1 WSX       0.039200
     45 H11         16.6720    34.1300    27.8680 hc         1 WSX       0.035033
     46 H12         15.3970    34.9890    27.0240 hc         1 WSX       0.035033
     47 H13         14.9930    33.7000    28.1460 hc         1 WSX       0.035033
     48 H14         12.6250    30.8600    27.8010 hc         1 WSX       0.031700
     49 H15         13.9400    31.9100    28.2300 hc         1 WSX       0.031700
     50 H16         11.6750    32.9100    28.6860 hc         1 WSX       0.037700
     51 H17         12.5790    33.9120    27.5580 hc         1 WSX       0.037700
     52 H18         11.3070    32.8510    26.9650 hc         1 WSX       0.037700
     53 H19         15.6500    38.3430    21.0780 hc         1 WSX       0.035811
     54 H20         16.8180    37.1000    20.6130 hc         1 WSX       0.035811
     55 H21         15.9800    38.0300    19.3780 hc         1 WSX       0.035811
     56 H22         16.0270    34.9450    19.5310 hc         1 WSX       0.035811
     57 H23         14.3280    34.7140    19.1180 hc         1 WSX       0.035811
     58 H24         15.2820    35.9290    18.2700 hc         1 WSX       0.035811
     59 H25         13.1650    38.0150    20.5580 hc         1 WSX       0.035811
     60 H26         13.6160    37.7350    18.8750 hc         1 WSX       0.035811
     61 H27         12.6130    36.5650    19.7210 hc         1 WSX       0.035811
     62 H28         12.7940    34.7510    20.9150 ha         1 WSX       0.140000
     63 H29         10.5300    30.2700    20.4050 hc         1 WSX       0.066033
     64 H30          9.0780    29.3520    20.8130 hc         1 WSX       0.066033
     65 H31          8.9460    31.0150    20.2430 hc         1 WSX       0.066033
     66 H32          5.5660    31.9690    20.6940 h1         1 WSX       0.046033
     67 H33          5.3140    30.2470    20.3520 h1         1 WSX       0.046033
     68 H34          4.5510    30.9960    21.7750 h1         1 WSX       0.046033
     69 H35          8.3030    24.8550    25.9280 h1         1 WSX       0.044367
     70 H36          9.3130    25.8030    24.8230 h1         1 WSX       0.044367
     71 H37          8.5670    26.5800    26.2370 h1         1 WSX       0.044367
     72 H38         11.8970    33.2150    24.1180 hn         1 WSX       0.191000
     73 O34          7.2470    26.0600    24.7100 os         1 WSX      -0.336100
     74 C30          5.4440    30.9870    21.1450 c3         1 WSX       0.146900
@<TRIPOS>BOND
     1     1     3 ar  
     2     1    16 ar  
     3     1    35 1   
     4     2    11 1   
     5     2    14 1   
     6     2    36 1   
     7     2    37 1   
     8     3    10 ar  
     9     3    38 1   
    10     4     5 ar  
    11     4    26 ar  
    12     4    39 1   
    13     5     6 ar  
    14     5    40 1   
    15     6     7 ar  
    16     6    73 1   
    17     7    25 ar  
    18     7    41 1   
    19     8    22 1   
    20     8    28 1   
    21     8    32 2   
    22     9    10 ar  
    23     9    21 ar  
    24     9    28 1   
    25    10    33 1   
    26    11    12 1   
    27    11    33 1   
    28    11    42 1   
    29    12    13 1   
    30    12    43 1   
    31    12    44 1   
    32    13    45 1   
    33    13    46 1   
    34    13    47 1   
    35    14    15 1   
    36    14    48 1   
    37    14    49 1   
    38    15    50 1   
    39    15    51 1   
    40    15    52 1   
    41    16    17 1   
    42    16    21 ar  
    43    17    18 1   
    44    17    19 1   
    45    17    20 1   
    46    18    53 1   
    47    18    54 1   
    48    18    55 1   
    49    19    56 1   
    50    19    57 1   
    51    19    58 1   
    52    20    59 1   
    53    20    60 1   
    54    20    61 1   
    55    21    62 1   
    56    22    23 2   
    57    22    31 1   
    58    23    24 1   
    59    23    29 1   
    60    24    63 1   
    61    24    64 1   
    62    24    65 1   
    63    25    26 ar  
    64    25    29 1   
    65    26    34 1   
    66    27    69 1   
    67    27    70 1   
    68    27    71 1   
    69    27    73 1   
    70    28    72 1   
    71    29    30 1   
    72    30    31 2   
    73    34    74 1   
    74    66    74 1   
    75    67    74 1   
    76    68    74 1   
@<TRIPOS>SUBSTRUCTURE
     1 WSX         1 TEMP              0 ****  ****    0 ROOT
