@<TRIPOS>MOLECULE
WSX
   74    76     1     0     0
SMALL
No Charge or Current Charge


@<TRIPOS>ATOM
      1 C14         15.9600    35.3050    22.5410 ca         1 WSX      -0.125000
      2 C10         14.6540    32.7820    27.6120 c3         1 WSX      -0.073400
      3 C13         15.7050    34.7720    23.8140 ca         1 WSX      -0.109000
      4 C31          5.5850    28.9210    23.5160 ca         1 WSX      -0.157000
      5 C32          5.6780    27.6590    22.9020 ca         1 WSX      -0.093000
      6 C33          6.9210    27.1550    22.4880 ca         1 WSX       0.114100
      7 C36          8.0860    27.9250    22.6930 ca         1 WSX      -0.138000
      8 C02         11.5060    32.4520    22.4660 c          1 WSX       0.554600
      9 C04         13.7570    33.5970    22.9460 ca         1 WSX      -0.034000
     10 C05         14.6020    33.9200    24.0270 ca         1 WSX       0.053100
     11 C07         14.8940    33.8510    26.5050 c3         1 WSX       0.180300
     12 C08         14.3840    35.2910    26.8350 c3         1 WSX      -0.091400
     13 C09         12.9100    35.6230    26.4890 c3         1 WSX      -0.081100
     14 C11         13.2130    32.5510    28.1410 c3         1 WSX      -0.061400
     15 C12         12.2170    31.9770    27.1130 c3         1 WSX      -0.089100
     16 C15         15.1260    34.9950    21.4410 ca         1 WSX      -0.046300
     17 C16         15.3770    35.5550    20.0130 c3         1 WSX       0.001300
     18 C17         16.6070    36.5030    19.9370 c3         1 WSX      -0.083433
     19 C18         15.6240    34.3750    19.0350 c3         1 WSX      -0.083433
     20 C19         14.1300    36.3570    19.5490 c3         1 WSX      -0.083433
     21 C20         14.0300    34.1300    21.6670 ca         1 WSX      -0.125000
     22 C21         10.6920    31.3530    23.0750 cc         1 WSX       0.108500
     23 C22          9.4900    30.9150    22.5760 cd         1 WSX      -0.062300
     24 C23          8.6800    31.3480    21.3690 c3         1 WSX      -0.028800
     25 C27          8.0000    29.1920    23.3060 ca         1 WSX      -0.018200
     26 C28          6.7480    29.6960    23.7230 ca         1 WSX       0.121100
     27 C35          8.1680    25.3020    21.4310 c3         1 WSX       0.144900
     28 N03         12.6660    32.7150    23.1850 ns         1 WSX      -0.132000
     29 N24          9.1610    29.9410    23.4960 na         1 WSX       0.215000
     30 N25         10.1110    29.7560    24.4560 nd         1 WSX      -0.178800
     31 N26         11.0450    30.6390    24.2030 nc         1 WSX      -0.353000
     32 O01         11.1860    33.0680    21.4510 o          1 WSX      -0.600100
     33 O06         14.3110    33.3770    25.2700 os         1 WSX      -0.370100
     34 O29          6.7000    30.9430    24.3200 os         1 WSX      -0.332100
     35 H1          16.8220    35.9560    22.4340 ha         1 WSX       0.114000
     36 H2          15.0510    31.8240    27.2550 hc         1 WSX       0.043200
     37 H3          15.2790    33.0550    28.4710 hc         1 WSX       0.043200
     38 H4          16.3840    35.0300    24.6200 ha         1 WSX       0.121000
     39 H5           4.6050    29.2760    23.8220 ha         1 WSX       0.128000
     40 H6           4.7810    27.0660    22.7440 ha         1 WSX       0.134000
     41 H7           9.0610    27.5600    22.3830 ha         1 WSX       0.140000
     42 H8          15.9850    33.9010    26.4010 h1         1 WSX       0.036700
     43 H9          14.5470    35.4850    27.9020 hc         1 WSX       0.039200
     44 H10         15.0190    36.0120    26.3080 hc         1 WSX       0.039200
     45 H11         12.6890    36.6620    26.7590 hc         1 WSX       0.035033
     46 H12         12.7210    35.5130    25.4150 hc         1 WSX       0.035033
     47 H13         12.2060    34.9850    27.0290 hc         1 WSX       0.035033
     48 H14         13.2740    31.8430    28.9750 hc         1 WSX       0.031700
     49 H15         12.8170    33.4780    28.5710 hc         1 WSX       0.031700
     50 H16         11.2630    31.7410    27.6000 hc         1 WSX       0.037700
     51 H17         12.0140    32.6910    26.3080 hc         1 WSX       0.037700
     52 H18         12.6110    31.0540    26.6700 hc         1 WSX       0.037700
     53 H19         16.4790    37.3700    20.5970 hc         1 WSX       0.035811
     54 H20         17.5290    35.9800    20.2200 hc         1 WSX       0.035811
     55 H21         16.7460    36.8830    18.9170 hc         1 WSX       0.035811
     56 H22         16.4790    33.7720    19.3660 hc         1 WSX       0.035811
     57 H23         14.7520    33.7140    18.9670 hc         1 WSX       0.035811
     58 H24         15.8400    34.7410    18.0240 hc         1 WSX       0.035811
     59 H25         13.9130    37.1720    20.2500 hc         1 WSX       0.035811
     60 H26         14.2930    36.7970    18.5580 hc         1 WSX       0.035811
     61 H27         13.2390    35.7220    19.4840 hc         1 WSX       0.035811
     62 H28         13.3970    33.8610    20.8290 ha         1 WSX       0.140000
     63 H29          9.2960    31.3420    20.4620 hc         1 WSX       0.066033
     64 H30          7.8220    30.6950    21.1760 hc         1 WSX       0.066033
     65 H31          8.2950    32.3650    21.5050 hc         1 WSX       0.066033
     66 H32          5.6630    32.5270    25.2040 h1         1 WSX       0.046033
     67 H33          4.7740    31.6740    23.9260 h1         1 WSX       0.046033
     68 H34          4.9860    30.9180    25.5290 h1         1 WSX       0.046033
     69 H35          7.9600    24.3190    20.9910 h1         1 WSX       0.044367
     70 H36          8.6470    25.9230    20.6630 h1         1 WSX       0.044367
     71 H37          8.8710    25.1610    22.2610 h1         1 WSX       0.044367
     72 H38         12.7580    32.1730    24.0360 hn         1 WSX       0.191000
     73 O34          6.9470    25.9100    21.8920 os         1 WSX      -0.336100
     74 C30          5.4690    31.5410    24.7650 c3         1 WSX       0.146900
@<TRIPOS>BOND
     1     1     3 ar  
     2     1    16 ar  
     3     1    35 1   
     4     2    11 1   
     5     2    14 1   
     6     2    36 1   
     7     2    37 1   
     8     3    10 ar  
     9     3    38 1   
    10     4     5 ar  
    11     4    26 ar  
    12     4    39 1   
    13     5     6 ar  
    14     5    40 1   
    15     6     7 ar  
    16     6    73 1   
    17     7    25 ar  
    18     7    41 1   
    19     8    22 1   
    20     8    28 1   
    21     8    32 2   
    22     9    10 ar  
    23     9    21 ar  
    24     9    28 1   
    25    10    33 1   
    26    11    12 1   
    27    11    33 1   
    28    11    42 1   
    29    12    13 1   
    30    12    43 1   
    31    12    44 1   
    32    13    45 1   
    33    13    46 1   
    34    13    47 1   
    35    14    15 1   
    36    14    48 1   
    37    14    49 1   
    38    15    50 1   
    39    15    51 1   
    40    15    52 1   
    41    16    17 1   
    42    16    21 ar  
    43    17    18 1   
    44    17    19 1   
    45    17    20 1   
    46    18    53 1   
    47    18    54 1   
    48    18    55 1   
    49    19    56 1   
    50    19    57 1   
    51    19    58 1   
    52    20    59 1   
    53    20    60 1   
    54    20    61 1   
    55    21    62 1   
    56    22    23 2   
    57    22    31 1   
    58    23    24 1   
    59    23    29 1   
    60    24    63 1   
    61    24    64 1   
    62    24    65 1   
    63    25    26 ar  
    64    25    29 1   
    65    26    34 1   
    66    27    69 1   
    67    27    70 1   
    68    27    71 1   
    69    27    73 1   
    70    28    72 1   
    71    29    30 1   
    72    30    31 2   
    73    34    74 1   
    74    66    74 1   
    75    67    74 1   
    76    68    74 1   
@<TRIPOS>SUBSTRUCTURE
     1 WSX         1 TEMP              0 ****  ****    0 ROOT
