@<TRIPOS>MOLECULE
WSY
   22    22     1     0     0
SMALL
abcg2


@<TRIPOS>ATOM
      1 N1          -0.4210    11.9870    -5.4480 na         1 WSY      -0.023700
      2 C4           0.4390    13.0850    -5.0680 c3         1 WSY       0.108600
      3 C5           1.6460    12.6520    -4.2380 c3         1 WSY      -0.228400
      4 C6           1.2540    12.0320    -2.8810 c          1 WSY       0.709000
      5 O            0.7150    10.9070    -2.9280 o          1 WSY      -0.729000
      6 O1           1.4920    12.7040    -1.8590 o          1 WSY      -0.729000
      7 C2          -1.6070    11.6300    -4.9470 cc         1 WSY       0.459800
      8 C3          -2.3620    12.4030    -3.9300 c3         1 WSY      -0.123400
      9 N           -1.9930    10.4990    -5.5030 nd         1 WSY      -0.740000
     10 N2          -0.0040    11.0730    -6.3350 nc         1 WSY      -0.543800
     11 C1          -0.9770    10.1930    -6.3430 cd         1 WSY       0.519300
     12 C           -0.9680     8.9790    -7.2010 c3         1 WSY      -0.096400
     13 H1           0.7690    13.5820    -5.9810 h1         1 WSY       0.033700
     14 H2          -0.1670    13.8040    -4.5170 h1         1 WSY       0.033700
     15 H3           2.2310    11.9390    -4.8240 hc         1 WSY       0.036200
     16 H4           2.2660    13.5390    -4.0950 hc         1 WSY       0.036200
     17 H6          -3.3250    11.9300    -3.7580 hc         1 WSY       0.055367
     18 H7          -1.8250    12.4380    -2.9820 hc         1 WSY       0.055367
     19 H8          -2.5380    13.4300    -4.2500 hc         1 WSY       0.055367
     20 H9          -0.0490     8.9200    -7.7800 hc         1 WSY       0.036700
     21 H10         -1.0500     8.0750    -6.5980 hc         1 WSY       0.036700
     22 H11         -1.8100     8.9830    -7.8950 hc         1 WSY       0.036700
@<TRIPOS>BOND
     1     1     2 1   
     2     1     7 1   
     3     1    10 1   
     4     2     3 1   
     5     2    13 1   
     6     2    14 1   
     7     3     4 1   
     8     3    15 1   
     9     3    16 1   
    10     4     5 1   
    11     4     6 1   
    12     7     8 1   
    13     7     9 2   
    14     8    17 1   
    15     8    18 1   
    16     8    19 1   
    17     9    11 1   
    18    10    11 2   
    19    11    12 1   
    20    12    20 1   
    21    12    21 1   
    22    12    22 1   
@<TRIPOS>SUBSTRUCTURE
     1 WSY         1 TEMP              0 ****  ****    0 ROOT
