@<TRIPOS>MOLECULE
WSY
   22    22     1     0     0
SMALL
No Charge or Current Charge


@<TRIPOS>ATOM
      1 N1          -0.3650    11.8860    -5.4350 na         1 WSY      -0.023700
      2 C4           0.4830    13.0490    -5.1020 c3         1 WSY       0.108600
      3 C5           1.7140    12.7150    -4.2290 c3         1 WSY      -0.228400
      4 C6           1.2670    12.2680    -2.8360 c          1 WSY       0.709000
      5 O            1.0880    11.0770    -2.6400 o          1 WSY      -0.729000
      6 O1           1.0660    13.1310    -1.9970 o          1 WSY      -0.729000
      7 C2          -1.5720    11.5220    -4.8720 cc         1 WSY       0.459800
      8 C3          -2.2990    12.2570    -3.7810 c3         1 WSY      -0.123400
      9 N           -2.0080    10.4330    -5.4780 nd         1 WSY      -0.740000
     10 N2          -0.0140    11.0190    -6.4250 nc         1 WSY      -0.543800
     11 C1          -1.0220    10.1620    -6.4040 cd         1 WSY       0.519300
     12 C           -1.0860     8.9920    -7.3460 c3         1 WSY      -0.096400
     13 H1           0.8300    13.4950    -6.0430 h1         1 WSY       0.033700
     14 H2          -0.1290    13.8050    -4.5930 h1         1 WSY       0.033700
     15 H3           2.2560    11.9140    -4.7450 hc         1 WSY       0.036200
     16 H4           2.2770    13.6540    -4.1610 hc         1 WSY       0.036200
     17 H6          -3.2570    11.7760    -3.5540 hc         1 WSY       0.055367
     18 H7          -1.7050    12.2760    -2.8610 hc         1 WSY       0.055367
     19 H8          -2.5040    13.2910    -4.0800 hc         1 WSY       0.055367
     20 H9          -0.1690     8.3940    -7.2880 hc         1 WSY       0.036700
     21 H10         -1.9300     8.3350    -7.1100 hc         1 WSY       0.036700
     22 H11         -1.2030     9.3320    -8.3810 hc         1 WSY       0.036700
@<TRIPOS>BOND
     1     1     2 1   
     2     1     7 1   
     3     1    10 1   
     4     2     3 1   
     5     2    13 1   
     6     2    14 1   
     7     3     4 1   
     8     3    15 1   
     9     3    16 1   
    10     4     5 1   
    11     4     6 1   
    12     7     8 1   
    13     7     9 2   
    14     8    17 1   
    15     8    18 1   
    16     8    19 1   
    17     9    11 1   
    18    10    11 2   
    19    11    12 1   
    20    12    20 1   
    21    12    21 1   
    22    12    22 1   
@<TRIPOS>SUBSTRUCTURE
     1 WSY         1 TEMP              0 ****  ****    0 ROOT
