@<TRIPOS>MOLECULE
WT0
   58    60     1     0     0
SMALL
No Charge or Current Charge


@<TRIPOS>ATOM
      1 N1         -36.6660   -30.4290   -69.1490 n3         1 WT0      -0.717600
      2 C4         -37.3490   -31.7450   -69.3470 c6         1 WT0       0.131800
      3 C5         -35.1800   -30.5770   -68.8950 c6         1 WT0       0.173500
      4 C6         -34.4090   -29.2070   -68.7350 c3         1 WT0       0.155600
      5 C7         -37.4050   -29.5540   -68.1890 c3         1 WT0       0.223100
      6 C8         -37.5990   -30.1300   -66.7810 ca         1 WT0      -0.117300
      7 C10        -39.0710   -31.1550   -65.1060 ca         1 WT0      -0.136300
      8 C13        -40.7730   -33.3720   -67.2880 ca         1 WT0      -0.079000
      9 C17        -39.0830   -35.6100   -67.3070 ca         1 WT0       0.019100
     10 C20        -36.7650   -30.6130   -64.5360 ca         1 WT0      -0.110000
     11 C21        -36.5580   -30.1050   -65.8290 ca         1 WT0      -0.094000
     12 C1         -34.5000   -31.4320   -70.0280 c6         1 WT0       0.131300
     13 C11        -40.4340   -31.7100   -64.7080 c3         1 WT0       0.251100
     14 C12        -40.2090   -33.8330   -66.0830 ca         1 WT0       0.299000
     15 C14        -40.4800   -34.0160   -68.5110 ca         1 WT0      -0.236500
     16 C16        -39.6310   -35.1430   -68.5130 ca         1 WT0      -0.038000
     17 C18        -39.3710   -34.9590   -66.0960 ca         1 WT0      -0.112000
     18 C19        -38.0160   -31.1380   -64.1750 ca         1 WT0      -0.099000
     19 C2         -35.2090   -32.8030   -70.1980 c6         1 WT0       0.174300
     20 C3         -36.7240   -32.5890   -70.4970 c6         1 WT0       0.178300
     21 C9         -38.8540   -30.6530   -66.4060 ca         1 WT0      -0.083000
     22 N2         -40.4560   -33.1730   -64.8760 nu         1 WT0      -0.936200
     23 O1         -33.0870   -31.6550   -69.7860 oh         1 WT0      -0.739000
     24 O2         -34.5410   -33.5380   -71.2440 oh         1 WT0      -0.645000
     25 O3         -37.4160   -33.8500   -70.6410 oh         1 WT0      -0.727000
     26 O4         -34.4030   -28.4020   -69.9300 oh         1 WT0      -0.653000
     27 S1         -41.1490   -33.3940   -70.0680 sy         1 WT0       1.068500
     28 H2         -38.4120   -31.5780   -69.5770 h1         1 WT0       0.042700
     29 H3         -37.3130   -32.3340   -68.4170 h1         1 WT0       0.042700
     30 H4         -35.0410   -31.1250   -67.9510 h1         1 WT0       0.041700
     31 H5         -33.3770   -29.4250   -68.4340 h1         1 WT0       0.024200
     32 H6         -34.8440   -28.6360   -67.9070 h1         1 WT0       0.024200
     33 H7         -36.9310   -28.5680   -68.1060 h1         1 WT0       0.067700
     34 H8         -38.4020   -29.3470   -68.6040 h1         1 WT0       0.067700
     35 H9         -41.4290   -32.5060   -67.2700 ha         1 WT0       0.139000
     36 H10        -43.0850   -34.7300   -69.7740 h1         1 WT0       0.106700
     37 H11        -42.7750   -34.3420   -71.5060 h1         1 WT0       0.106700
     38 H12        -41.7870   -35.5980   -70.6740 h1         1 WT0       0.106700
     39 H13        -35.9550   -30.5940   -63.8110 ha         1 WT0       0.116000
     40 H14        -35.5880   -29.6880   -66.0820 ha         1 WT0       0.111000
     41 H15        -34.6300   -30.8810   -70.9730 h1         1 WT0       0.073700
     42 H16        -41.2180   -31.2390   -65.3180 h1         1 WT0       0.064700
     43 H17        -40.6410   -31.4460   -63.6610 h1         1 WT0       0.064700
     44 H18        -39.3870   -35.6550   -69.4420 ha         1 WT0       0.154000
     45 H19        -38.9300   -35.3200   -65.1720 ha         1 WT0       0.131000
     46 H20        -38.1660   -31.5260   -63.1700 ha         1 WT0       0.108000
     47 H21        -35.1230   -33.3510   -69.2470 h1         1 WT0       0.050700
     48 H22        -36.8110   -32.0080   -71.4280 h1         1 WT0       0.059700
     49 H23        -39.6680   -30.6620   -67.1280 ha         1 WT0       0.121000
     50 H24        -40.1490   -33.6930   -64.0530 hn         1 WT0       0.463000
     51 H25        -32.6270   -30.8040   -69.9780 ho         1 WT0       0.508000
     52 H26        -33.5900   -33.3270   -71.1050 ho         1 WT0       0.447000
     53 H27        -38.3490   -33.6370   -70.9120 ho         1 WT0       0.529000
     54 H28        -34.0220   -27.5300   -69.6880 ho         1 WT0       0.437000
     55 Br1        -37.9220   -37.1290   -67.3160 br         1 WT0      -0.092100
     56 C15        -42.3240   -34.6510   -70.5570 c3         1 WT0      -0.332100
     57 O5         -40.0660   -33.4280   -71.0610 o          1 WT0      -0.534000
     58 O6         -41.9050   -32.1620   -69.8120 o          1 WT0      -0.534000
@<TRIPOS>BOND
     1     1     2 1   
     2     1     3 1   
     3     1     5 1   
     4     2    20 1   
     5     2    28 1   
     6     2    29 1   
     7     3     4 1   
     8     3    12 1   
     9     3    30 1   
    10     4    26 1   
    11     4    31 1   
    12     4    32 1   
    13     5     6 1   
    14     5    33 1   
    15     5    34 1   
    16     6    11 ar  
    17     6    21 ar  
    18     7    13 1   
    19     7    18 ar  
    20     7    21 ar  
    21     8    14 ar  
    22     8    15 ar  
    23     8    35 1   
    24     9    16 ar  
    25     9    17 ar  
    26     9    55 1   
    27    10    11 ar  
    28    10    18 ar  
    29    10    39 1   
    30    11    40 1   
    31    12    19 1   
    32    12    23 1   
    33    12    41 1   
    34    13    22 1   
    35    13    42 1   
    36    13    43 1   
    37    14    17 ar  
    38    14    22 1   
    39    15    16 ar  
    40    15    27 1   
    41    16    44 1   
    42    17    45 1   
    43    18    46 1   
    44    19    20 1   
    45    19    24 1   
    46    19    47 1   
    47    20    25 1   
    48    20    48 1   
    49    21    49 1   
    50    22    50 1   
    51    23    51 1   
    52    24    52 1   
    53    25    53 1   
    54    26    54 1   
    55    27    56 1   
    56    27    57 2   
    57    27    58 2   
    58    36    56 1   
    59    37    56 1   
    60    38    56 1   
@<TRIPOS>SUBSTRUCTURE
     1 WT0         1 TEMP              0 ****  ****    0 ROOT
