@<TRIPOS>MOLECULE
WT0
   58    60     1     0     0
SMALL
abcg2


@<TRIPOS>ATOM
      1 N1         -36.6160   -30.4530   -69.1050 n3         1 WT0      -0.717600
      2 C4         -37.2030   -31.7860   -69.1920 c6         1 WT0       0.131800
      3 C5         -35.1700   -30.5090   -68.8720 c6         1 WT0       0.173500
      4 C6         -34.5240   -29.1400   -68.7150 c3         1 WT0       0.155600
      5 C7         -37.3990   -29.5670   -68.2320 c3         1 WT0       0.223100
      6 C8         -37.6250   -30.0700   -66.8190 ca         1 WT0      -0.117300
      7 C10        -39.1150   -31.1400   -65.2140 ca         1 WT0      -0.136300
      8 C13        -40.5630   -33.4340   -67.3430 ca         1 WT0      -0.079000
      9 C17        -39.3810   -35.9310   -67.2070 ca         1 WT0       0.019100
     10 C20        -36.8520   -30.5840   -64.5840 ca         1 WT0      -0.110000
     11 C21        -36.6200   -30.0580   -65.8510 ca         1 WT0      -0.094000
     12 C1         -34.5300   -31.2610   -70.0520 c6         1 WT0       0.131300
     13 C11        -40.4440   -31.7820   -64.8830 c3         1 WT0       0.251100
     14 C12        -40.1740   -33.9380   -66.0910 ca         1 WT0       0.299000
     15 C14        -40.3400   -34.1920   -68.4800 ca         1 WT0      -0.236500
     16 C16        -39.7500   -35.4510   -68.4550 ca         1 WT0      -0.038000
     17 C18        -39.5750   -35.2100   -66.0440 ca         1 WT0      -0.112000
     18 C19        -38.0900   -31.1280   -64.2670 ca         1 WT0      -0.099000
     19 C2         -35.1220   -32.6490   -70.2340 c6         1 WT0       0.174300
     20 C3         -36.6270   -32.5800   -70.3630 c6         1 WT0       0.178300
     21 C9         -38.8680   -30.6050   -66.4750 ca         1 WT0      -0.083000
     22 N2         -40.3940   -33.2470   -64.9220 nu         1 WT0      -0.936200
     23 O1         -33.1250   -31.4580   -69.8550 oh         1 WT0      -0.739000
     24 O2         -34.5700   -33.2750   -71.3900 oh         1 WT0      -0.645000
     25 O3         -37.1310   -33.9110   -70.3740 oh         1 WT0      -0.727000
     26 O4         -34.7690   -28.3470   -69.8780 oh         1 WT0      -0.653000
     27 S1         -40.8350   -33.5220   -70.0510 sy         1 WT0       1.068500
     28 H2         -38.2790   -31.6800   -69.3320 h1         1 WT0       0.042700
     29 H3         -37.0510   -32.3720   -68.2720 h1         1 WT0       0.042700
     30 H4         -34.9260   -31.0710   -67.9540 h1         1 WT0       0.041700
     31 H5         -33.4520   -29.2920   -68.5670 h1         1 WT0       0.024200
     32 H6         -34.9030   -28.6330   -67.8250 h1         1 WT0       0.024200
     33 H7         -36.9260   -28.5870   -68.2190 h1         1 WT0       0.067700
     34 H8         -38.3730   -29.4410   -68.7090 h1         1 WT0       0.067700
     35 H9         -41.0300   -32.4670   -67.4360 ha         1 WT0       0.139000
     36 H10        -43.1010   -33.9370   -69.5820 h1         1 WT0       0.106700
     37 H11        -42.7460   -33.8490   -71.3400 h1         1 WT0       0.106700
     38 H12        -42.3130   -35.3230   -70.4110 h1         1 WT0       0.106700
     39 H13        -36.0650   -30.5620   -63.8400 ha         1 WT0       0.116000
     40 H14        -35.6520   -29.6310   -66.0750 ha         1 WT0       0.111000
     41 H15        -34.6980   -30.6850   -70.9640 h1         1 WT0       0.073700
     42 H16        -41.2190   -31.4290   -65.5620 h1         1 WT0       0.064700
     43 H17        -40.7530   -31.5120   -63.8740 h1         1 WT0       0.064700
     44 H18        -39.5740   -36.0130   -69.3590 ha         1 WT0       0.154000
     45 H19        -39.2590   -35.6120   -65.0900 ha         1 WT0       0.131000
     46 H20        -38.2670   -31.5380   -63.2790 ha         1 WT0       0.108000
     47 H21        -34.8830   -33.2440   -69.3420 h1         1 WT0       0.050700
     48 H22        -36.8780   -32.0730   -71.3020 h1         1 WT0       0.059700
     49 H23        -39.6580   -30.5990   -67.2160 ha         1 WT0       0.121000
     50 H24        -39.9320   -33.6510   -64.1200 hn         1 WT0       0.463000
     51 H25        -32.6460   -30.7140   -70.2370 ho         1 WT0       0.508000
     52 H26        -33.6120   -33.1530   -71.3320 ho         1 WT0       0.447000
     53 H27        -38.0670   -33.8910   -70.6340 ho         1 WT0       0.529000
     54 H28        -34.2750   -27.5230   -69.7860 ho         1 WT0       0.437000
     55 BR1        -38.5410   -37.6490   -67.0950 br         1 WT0      -0.092100
     56 C15        -42.4220   -34.2410   -70.3760 c3         1 WT0      -0.332100
     57 O5         -39.9020   -34.0160   -71.0590 o          1 WT0      -0.534000
     58 O6         -40.9900   -32.0870   -69.9200 o          1 WT0      -0.534000
@<TRIPOS>BOND
     1     1     2 1   
     2     1     3 1   
     3     1     5 1   
     4     2    20 1   
     5     2    28 1   
     6     2    29 1   
     7     3     4 1   
     8     3    12 1   
     9     3    30 1   
    10     4    26 1   
    11     4    31 1   
    12     4    32 1   
    13     5     6 1   
    14     5    33 1   
    15     5    34 1   
    16     6    11 ar  
    17     6    21 ar  
    18     7    13 1   
    19     7    18 ar  
    20     7    21 ar  
    21     8    14 ar  
    22     8    15 ar  
    23     8    35 1   
    24     9    16 ar  
    25     9    17 ar  
    26     9    55 1   
    27    10    11 ar  
    28    10    18 ar  
    29    10    39 1   
    30    11    40 1   
    31    12    19 1   
    32    12    23 1   
    33    12    41 1   
    34    13    22 1   
    35    13    42 1   
    36    13    43 1   
    37    14    17 ar  
    38    14    22 1   
    39    15    16 ar  
    40    15    27 1   
    41    16    44 1   
    42    17    45 1   
    43    18    46 1   
    44    19    20 1   
    45    19    24 1   
    46    19    47 1   
    47    20    25 1   
    48    20    48 1   
    49    21    49 1   
    50    22    50 1   
    51    23    51 1   
    52    24    52 1   
    53    25    53 1   
    54    26    54 1   
    55    27    56 1   
    56    27    57 2   
    57    27    58 2   
    58    36    56 1   
    59    37    56 1   
    60    38    56 1   
@<TRIPOS>SUBSTRUCTURE
     1 WT0         1 TEMP              0 ****  ****    0 ROOT
