@<TRIPOS>MOLECULE
WT1
   78    80     1     0     0
SMALL
abcg2


@<TRIPOS>ATOM
      1 C01         46.5130    40.4630    12.0610 c3         1 WT1      -0.091100
      2 C02         46.7380    39.0760    12.6480 c3         1 WT1      -0.073400
      3 C04         48.9560    39.5590    13.8580 c3         1 WT1       0.180300
      4 C05         49.7340    40.6830    13.1940 c3         1 WT1      -0.074400
      5 C06         50.3720    41.6540    14.1770 c3         1 WT1      -0.085100
      6 C08         49.4700    37.8780    15.4870 ca         1 WT1       0.062100
      7 C09         48.6490    38.2120    16.5470 ca         1 WT1      -0.127000
      8 C10         48.2300    37.2440    17.4530 ca         1 WT1      -0.121000
      9 C11         48.6320    35.9210    17.3200 ca         1 WT1      -0.052300
     10 C12         48.1990    34.8220    18.2880 c3         1 WT1       0.002300
     11 C13         47.5090    33.6940    17.5090 c3         1 WT1      -0.083433
     12 C14         47.2220    35.3370    19.3460 c3         1 WT1      -0.083433
     13 C15         49.4340    34.2620    19.0050 c3         1 WT1      -0.083433
     14 C16         49.4750    35.5920    16.2550 ca         1 WT1      -0.129000
     15 C17         49.8890    36.5450    15.3300 ca         1 WT1      -0.030000
     16 C21         51.9430    35.2340    12.5190 cc         1 WT1       0.109500
     17 O28         53.2640    34.0010     6.0050 os         1 WT1      -0.337100
     18 C03         48.1960    38.6740    12.8650 c3         1 WT1      -0.107400
     19 C19         51.2110    35.1100    13.7900 c          1 WT1       0.556600
     20 C25         53.7400    34.4070     9.6010 ca         1 WT1      -0.091200
     21 C26         53.1630    34.4510     8.3410 ca         1 WT1      -0.031000
     22 C27         53.8420    33.9840     7.2350 ca         1 WT1       0.031100
     23 C29         53.5410    35.1690     5.2450 c3         1 WT1       0.144900
     24 C30         55.1380    33.4660     7.3960 ca         1 WT1       0.182100
     25 C32         57.0430    32.4960     6.3660 c3         1 WT1       0.143900
     26 C33         55.7180    33.4190     8.6610 ca         1 WT1      -0.288000
     27 C34         55.0260    33.8970     9.7730 ca         1 WT1       0.197100
     28 C36         56.7980    33.3610    11.2600 c3         1 WT1       0.146900
     29 C37         52.5380    34.2380    11.7730 cd         1 WT1      -0.064300
     30 C38         52.6590    32.7750    11.9590 c3         1 WT1      -0.029800
     31 N18         50.6970    36.2850    14.2230 ns         1 WT1      -0.126000
     32 N22         52.1080    36.4110    11.8740 nc         1 WT1      -0.351000
     33 N23         52.7640    36.2200    10.7980 nd         1 WT1      -0.180800
     34 N24         53.0320    34.9130    10.7160 na         1 WT1       0.223000
     35 O07         49.9280    38.7920    14.5920 os         1 WT1      -0.374100
     36 O20         51.0980    34.0350    14.3570 o          1 WT1      -0.604100
     37 O31         55.7360    33.0330     6.2820 os         1 WT1      -0.318100
     38 O35         55.5110    33.9020    11.0200 os         1 WT1      -0.328100
     39 H1          45.4560    40.6210    11.8440 hc         1 WT1       0.032033
     40 H2          46.8220    41.2550    12.7450 hc         1 WT1       0.032033
     41 H3          47.0640    40.5970    11.1280 hc         1 WT1       0.032033
     42 H4          46.2040    38.9960    13.5990 hc         1 WT1       0.038700
     43 H5          46.2820    38.3350    11.9860 hc         1 WT1       0.038700
     44 H6          48.2430    39.9980    14.5690 h1         1 WT1       0.039700
     45 H7          50.4920    40.2440    12.5380 hc         1 WT1       0.051200
     46 H8          49.0500    41.2240    12.5390 hc         1 WT1       0.051200
     47 H9          50.8720    42.4650    13.6480 hc         1 WT1       0.035033
     48 H10         49.6200    42.1020    14.8290 hc         1 WT1       0.035033
     49 H11         51.1140    41.1670    14.8090 hc         1 WT1       0.035033
     50 H12         48.3340    39.2390    16.6820 ha         1 WT1       0.117000
     51 H13         47.5850    37.5500    18.2640 ha         1 WT1       0.113000
     52 H14         47.1820    32.9080    18.1930 hc         1 WT1       0.035367
     53 H15         46.6280    34.0640    16.9800 hc         1 WT1       0.035367
     54 H16         48.1710    33.2340    16.7750 hc         1 WT1       0.035367
     55 H17         46.9370    34.5170    20.0070 hc         1 WT1       0.035367
     56 H18         47.6650    36.1170    19.9670 hc         1 WT1       0.035367
     57 H19         46.3080    35.7330    18.9010 hc         1 WT1       0.035367
     58 H20         49.1440    33.4720    19.7010 hc         1 WT1       0.035367
     59 H21         50.1520    33.8340    18.3040 hc         1 WT1       0.035367
     60 H22         49.9450    35.0400    19.5750 hc         1 WT1       0.035367
     61 H23         49.8030    34.5730    16.1350 ha         1 WT1       0.146000
     62 H24         48.1940    37.6430    13.2300 hc         1 WT1       0.054200
     63 H25         48.7290    38.6570    11.9080 hc         1 WT1       0.054200
     64 H26         52.1600    34.8440     8.2250 ha         1 WT1       0.148000
     65 H27         53.0240    35.0630     4.2930 h1         1 WT1       0.037700
     66 H28         53.1750    36.0680     5.7470 h1         1 WT1       0.037700
     67 H29         54.6110    35.2860     5.0520 h1         1 WT1       0.037700
     68 H30         57.3250    32.2160     5.3550 h1         1 WT1       0.045700
     69 H31         57.7600    33.2300     6.7420 h1         1 WT1       0.045700
     70 H32         57.0760    31.6070     7.0010 h1         1 WT1       0.045700
     71 H33         56.7150    33.0200     8.7820 ha         1 WT1       0.129000
     72 H34         56.9730    33.4560    12.3280 h1         1 WT1       0.047367
     73 H35         56.8510    32.3060    10.9840 h1         1 WT1       0.047367
     74 H36         57.5750    33.9110    10.7230 h1         1 WT1       0.047367
     75 H37         53.4470    32.5410    12.6750 hc         1 WT1       0.065700
     76 H38         51.7300    32.3650    12.3470 hc         1 WT1       0.065700
     77 H39         52.8950    32.2740    11.0220 hc         1 WT1       0.065700
     78 H40         50.8960    37.0910    13.6450 hn         1 WT1       0.193000
@<TRIPOS>BOND
     1     1     2 1   
     2     1    39 1   
     3     1    40 1   
     4     1    41 1   
     5     2    18 1   
     6     2    42 1   
     7     2    43 1   
     8     3     4 1   
     9     3    18 1   
    10     3    35 1   
    11     3    44 1   
    12     4     5 1   
    13     4    45 1   
    14     4    46 1   
    15     5    47 1   
    16     5    48 1   
    17     5    49 1   
    18     6     7 ar  
    19     6    15 ar  
    20     6    35 1   
    21     7     8 ar  
    22     7    50 1   
    23     8     9 ar  
    24     8    51 1   
    25     9    10 1   
    26     9    14 ar  
    27    10    11 1   
    28    10    12 1   
    29    10    13 1   
    30    11    52 1   
    31    11    53 1   
    32    11    54 1   
    33    12    55 1   
    34    12    56 1   
    35    12    57 1   
    36    13    58 1   
    37    13    59 1   
    38    13    60 1   
    39    14    15 ar  
    40    14    61 1   
    41    15    31 1   
    42    16    19 1   
    43    16    29 2   
    44    16    32 1   
    45    17    22 1   
    46    17    23 1   
    47    18    62 1   
    48    18    63 1   
    49    19    31 1   
    50    19    36 2   
    51    20    21 ar  
    52    20    27 ar  
    53    20    34 1   
    54    21    22 ar  
    55    21    64 1   
    56    22    24 ar  
    57    23    65 1   
    58    23    66 1   
    59    23    67 1   
    60    24    26 ar  
    61    24    37 1   
    62    25    37 1   
    63    25    68 1   
    64    25    69 1   
    65    25    70 1   
    66    26    27 ar  
    67    26    71 1   
    68    27    38 1   
    69    28    38 1   
    70    28    72 1   
    71    28    73 1   
    72    28    74 1   
    73    29    30 1   
    74    29    34 1   
    75    30    75 1   
    76    30    76 1   
    77    30    77 1   
    78    31    78 1   
    79    32    33 2   
    80    33    34 1   
@<TRIPOS>SUBSTRUCTURE
     1 WT1         1 TEMP              0 ****  ****    0 ROOT
