@<TRIPOS>MOLECULE
WT1
   78    80     1     0     0
SMALL
No Charge or Current Charge


@<TRIPOS>ATOM
      1 C01         46.4100    42.1850    13.7910 c3         1 WT1      -0.091100
      2 C02         46.1180    40.7080    14.1250 c3         1 WT1      -0.073400
      3 C04         48.5880    39.8250    14.0460 c3         1 WT1       0.180300
      4 C05         49.4850    40.6800    13.1120 c3         1 WT1      -0.074400
      5 C06         50.9170    40.8920    13.6500 c3         1 WT1      -0.085100
      6 C08         48.8880    37.5620    15.0610 ca         1 WT1       0.062100
      7 C09         48.0440    37.8340    16.1570 ca         1 WT1      -0.127000
      8 C10         47.7780    36.8410    17.1130 ca         1 WT1      -0.121000
      9 C11         48.3510    35.5520    17.0030 ca         1 WT1      -0.052300
     10 C12         48.0830    34.4240    18.0390 c3         1 WT1       0.002300
     11 C13         47.4360    33.2100    17.3200 c3         1 WT1      -0.083433
     12 C14         47.1280    34.8630    19.1850 c3         1 WT1      -0.083433
     13 C15         49.4270    33.9870    18.6810 c3         1 WT1      -0.083433
     14 C16         49.2020    35.2970    15.9020 ca         1 WT1      -0.129000
     15 C17         49.4750    36.2890    14.9330 ca         1 WT1      -0.030000
     16 C21         51.8120    35.2910    12.1070 cc         1 WT1       0.109500
     17 O28         53.4390    33.1670     6.0810 os         1 WT1      -0.337100
     18 C03         47.1220    39.6840    13.5370 c3         1 WT1      -0.107400
     19 C19         51.0610    34.9840    13.3660 c          1 WT1       0.556600
     20 C25         53.8950    34.5880     9.4370 ca         1 WT1      -0.091200
     21 C26         53.3330    34.1500     8.2270 ca         1 WT1      -0.031000
     22 C27         54.1230    33.5570     7.2280 ca         1 WT1       0.031100
     23 C29         54.0450    32.5420     4.9360 c3         1 WT1       0.144900
     24 C30         55.5260    33.4000     7.4510 ca         1 WT1       0.182100
     25 C32         57.7480    32.6300     6.6480 c3         1 WT1       0.143900
     26 C33         56.0850    33.8470     8.6730 ca         1 WT1      -0.288000
     27 C34         55.2760    34.4410     9.6630 ca         1 WT1       0.197100
     28 C36         57.1890    34.7670    11.2010 c3         1 WT1       0.146900
     29 C37         52.6130    34.3920    11.4460 cd         1 WT1      -0.064300
     30 C38         52.9580    32.9440    11.7340 c3         1 WT1      -0.029800
     31 N18         50.3270    36.0760    13.8120 ns         1 WT1      -0.126000
     32 N22         51.7950    36.5080    11.4530 nc         1 WT1      -0.351000
     33 N23         52.5590    36.4290    10.3910 nd         1 WT1      -0.180800
     34 N24         53.0760    35.1690    10.4030 na         1 WT1       0.223000
     35 O07         49.1830    38.5110    14.0940 os         1 WT1      -0.374100
     36 O20         51.0890    33.8980    13.9410 o          1 WT1      -0.604100
     37 O31         56.3310    32.8190     6.4860 os         1 WT1      -0.318100
     38 O35         55.7960    34.8840    10.8660 os         1 WT1      -0.328100
     39 H1          45.5840    42.8200    14.1330 hc         1 WT1       0.032033
     40 H2          47.3230    42.5270    14.2920 hc         1 WT1       0.032033
     41 H3          46.5240    42.3260    12.7100 hc         1 WT1       0.032033
     42 H4          46.0760    40.5910    15.2150 hc         1 WT1       0.038700
     43 H5          45.1170    40.4620    13.7500 hc         1 WT1       0.038700
     44 H6          48.5960    40.2850    15.0420 h1         1 WT1       0.039700
     45 H7          49.5410    40.2020    12.1260 hc         1 WT1       0.051200
     46 H8          49.0280    41.6620    12.9550 hc         1 WT1       0.051200
     47 H9          51.4900    41.5280    12.9650 hc         1 WT1       0.035033
     48 H10         50.8930    41.3800    14.6310 hc         1 WT1       0.035033
     49 H11         51.4450    39.9370    13.7500 hc         1 WT1       0.035033
     50 H12         47.5820    38.8070    16.2860 ha         1 WT1       0.117000
     51 H13         47.1190    37.1020    17.9350 ha         1 WT1       0.113000
     52 H14         47.2000    32.4110    18.0340 hc         1 WT1       0.035367
     53 H15         46.5030    33.5060    16.8250 hc         1 WT1       0.035367
     54 H16         48.1010    32.7850    16.5600 hc         1 WT1       0.035367
     55 H17         46.9630    34.0410    19.8930 hc         1 WT1       0.035367
     56 H18         47.5480    35.7040    19.7510 hc         1 WT1       0.035367
     57 H19         46.1480    35.1600    18.7920 hc         1 WT1       0.035367
     58 H20         49.2650    33.2160    19.4450 hc         1 WT1       0.035367
     59 H21         50.1180    33.5720    17.9380 hc         1 WT1       0.035367
     60 H22         49.9220    34.8400    19.1620 hc         1 WT1       0.035367
     61 H23         49.6480    34.3150    15.8090 ha         1 WT1       0.146000
     62 H24         46.7440    38.6830    13.7770 hc         1 WT1       0.054200
     63 H25         47.1060    39.7500    12.4420 hc         1 WT1       0.054200
     64 H26         52.2650    34.2690     8.0550 ha         1 WT1       0.148000
     65 H27         53.2850    32.3380     4.1720 h1         1 WT1       0.037700
     66 H28         54.8040    33.1960     4.4870 h1         1 WT1       0.037700
     67 H29         54.5090    31.5860     5.2100 h1         1 WT1       0.037700
     68 H30         58.1700    32.1510     5.7560 h1         1 WT1       0.045700
     69 H31         58.2570    33.5920     6.7880 h1         1 WT1       0.045700
     70 H32         57.9610    31.9860     7.5110 h1         1 WT1       0.045700
     71 H33         57.1460    33.7350     8.8540 ha         1 WT1       0.129000
     72 H34         57.3750    35.1790    12.2010 h1         1 WT1       0.047367
     73 H35         57.5030    33.7150    11.2050 h1         1 WT1       0.047367
     74 H36         57.8110    35.3200    10.4860 h1         1 WT1       0.047367
     75 H37         53.5840    32.8650    12.6300 hc         1 WT1       0.065700
     76 H38         52.0510    32.3530    11.9070 hc         1 WT1       0.065700
     77 H39         53.4990    32.4630    10.9110 hc         1 WT1       0.065700
     78 H40         50.4160    36.8930    13.2200 hn         1 WT1       0.193000
@<TRIPOS>BOND
     1     1     2 1   
     2     1    39 1   
     3     1    40 1   
     4     1    41 1   
     5     2    18 1   
     6     2    42 1   
     7     2    43 1   
     8     3     4 1   
     9     3    18 1   
    10     3    35 1   
    11     3    44 1   
    12     4     5 1   
    13     4    45 1   
    14     4    46 1   
    15     5    47 1   
    16     5    48 1   
    17     5    49 1   
    18     6     7 ar  
    19     6    15 ar  
    20     6    35 1   
    21     7     8 ar  
    22     7    50 1   
    23     8     9 ar  
    24     8    51 1   
    25     9    10 1   
    26     9    14 ar  
    27    10    11 1   
    28    10    12 1   
    29    10    13 1   
    30    11    52 1   
    31    11    53 1   
    32    11    54 1   
    33    12    55 1   
    34    12    56 1   
    35    12    57 1   
    36    13    58 1   
    37    13    59 1   
    38    13    60 1   
    39    14    15 ar  
    40    14    61 1   
    41    15    31 1   
    42    16    19 1   
    43    16    29 2   
    44    16    32 1   
    45    17    22 1   
    46    17    23 1   
    47    18    62 1   
    48    18    63 1   
    49    19    31 1   
    50    19    36 2   
    51    20    21 ar  
    52    20    27 ar  
    53    20    34 1   
    54    21    22 ar  
    55    21    64 1   
    56    22    24 ar  
    57    23    65 1   
    58    23    66 1   
    59    23    67 1   
    60    24    26 ar  
    61    24    37 1   
    62    25    37 1   
    63    25    68 1   
    64    25    69 1   
    65    25    70 1   
    66    26    27 ar  
    67    26    71 1   
    68    27    38 1   
    69    28    38 1   
    70    28    72 1   
    71    28    73 1   
    72    28    74 1   
    73    29    30 1   
    74    29    34 1   
    75    30    75 1   
    76    30    76 1   
    77    30    77 1   
    78    31    78 1   
    79    32    33 2   
    80    33    34 1   
@<TRIPOS>SUBSTRUCTURE
     1 WT1         1 TEMP              0 ****  ****    0 ROOT
