@<TRIPOS>MOLECULE
WT2
   25    24     1     0     0
SMALL
bcc


@<TRIPOS>ATOM
      1 CH          -4.6430     0.5550     0.3930 c          1 WT2       0.437600
      2 CZ          -3.4940    -0.2920    -0.1050 ce         1 WT2       0.553200
      3 NH          -3.6570    -1.4100    -0.7010 n2         1 WT2      -0.818100
      4 NE          -2.2890     0.2440     0.1510 nu         1 WT2      -0.857200
      5 CD          -1.0530    -0.3780    -0.2600 c3         1 WT2       0.225800
      6 CG           0.1420     0.3860     0.2860 c3         1 WT2      -0.093400
      7 CB           1.4620    -0.2530    -0.1190 c3         1 WT2      -0.047400
      8 CA           2.6900     0.5290     0.3550 c3         1 WT2       0.012500
      9 C            3.9630    -0.3130     0.0910 c          1 WT2       0.902600
     10 OA2          4.7340     0.0730    -0.8090 o          1 WT2      -0.837800
     11 OA1          4.1000    -1.3350     0.7960 o          1 WT2      -0.837800
     12 N            2.6910     1.8580    -0.2380 n8         1 WT2      -0.894800
     13 OH          -5.7880     0.2240     0.2510 o          1 WT2      -0.508100
     14 HA           2.5990     0.6540     1.4410 h1         1 WT2       0.035700
     15 HN1          3.4210     2.4090     0.1980 hn         1 WT2       0.327300
     16 HN2          2.9940     1.7630    -1.2020 hn         1 WT2       0.327300
     17 HB1C         1.5160    -1.2680     0.2810 hc         1 WT2       0.043700
     18 HB2C         1.5040    -0.3500    -1.2110 hc         1 WT2       0.043700
     19 HG1C         0.1120     1.4190    -0.0680 hc         1 WT2       0.039200
     20 HG2C         0.0760     0.4250     1.3780 hc         1 WT2       0.039200
     21 HD1C        -1.0390    -1.4130     0.0950 h1         1 WT2       0.048200
     22 HD2C        -1.0020    -0.4280    -1.3530 h1         1 WT2       0.048200
     23 HH1N        -4.6470    -1.6240    -0.7630 hn         1 WT2       0.388400
     24 HH          -4.3700     1.4980     0.8960 h4         1 WT2      -0.010800
     25 HNE         -2.2420     1.1600     0.5670 hn         1 WT2       0.431800
@<TRIPOS>BOND
     1     1     2 1   
     2     1    13 2   
     3     1    24 1   
     4     2     3 2   
     5     2     4 1   
     6     3    23 1   
     7     4     5 1   
     8     4    25 1   
     9     5     6 1   
    10     5    21 1   
    11     5    22 1   
    12     6     7 1   
    13     6    19 1   
    14     6    20 1   
    15     7     8 1   
    16     7    17 1   
    17     7    18 1   
    18     8     9 1   
    19     8    12 1   
    20     8    14 1   
    21     9    10 1   
    22     9    11 1   
    23    12    15 1   
    24    12    16 1   
@<TRIPOS>SUBSTRUCTURE
     1 WT2         1 TEMP              0 ****  ****    0 ROOT
