@<TRIPOS>MOLECULE
WT2
   25    24     1     0     0
SMALL
No Charge or Current Charge


@<TRIPOS>ATOM
      1 CH          -4.7530     0.6760     0.1700 c          1 WT2       0.437600
      2 CZ          -3.6070    -0.3320     0.0020 ce         1 WT2       0.553200
      3 NH          -3.7970    -1.4810    -0.5530 n2         1 WT2      -0.818100
      4 NE          -2.3160     0.0450     0.3980 nu         1 WT2      -0.912400
      5 CD          -1.0660    -0.4970    -0.1580 c3         1 WT2       0.225800
      6 CG           0.1470     0.3090     0.3490 c3         1 WT2      -0.093400
      7 CB           1.4940    -0.2290    -0.1940 c3         1 WT2      -0.047400
      8 CA           2.7490     0.5210     0.3330 c3         1 WT2       0.012500
      9 C            4.0580    -0.3150     0.0160 c          1 WT2       0.692000
     10 OA2          4.4930    -0.3060    -1.1290 o          1 WT2      -0.732500
     11 OA1          4.6480    -0.8460     0.9480 o          1 WT2      -0.732500
     12 N            2.7530     1.9580    -0.1270 n8         1 WT2      -1.005200
     13 OH          -5.9230     0.4830    -0.1650 o          1 WT2      -0.508100
     14 HA           2.6670     0.5470     1.4290 h1         1 WT2       0.035700
     15 HN1          3.5620     2.4390     0.2860 hn         1 WT2       0.382500
     16 HN2          2.9650     1.9730    -1.1330 hn         1 WT2       0.382500
     17 HB1C         1.5800    -1.2860     0.0880 hc         1 WT2       0.043700
     18 HB2C         1.4860    -0.2010    -1.2910 hc         1 WT2       0.043700
     19 HG1C         0.0260     1.3590     0.0540 hc         1 WT2       0.039200
     20 HG2C         0.1660     0.2800     1.4460 hc         1 WT2       0.039200
     21 HD1C        -0.9500    -1.5490     0.1390 h1         1 WT2       0.048200
     22 HD2C        -1.0930    -0.4570    -1.2560 h1         1 WT2       0.048200
     23 HH1N        -4.7970    -1.5570    -0.7940 hn         1 WT2       0.388400
     24 HH          -4.4600     1.6450     0.6360 h4         1 WT2      -0.010800
     25 HNE         -2.2530     0.9550     0.8550 hn         1 WT2       0.487000
@<TRIPOS>BOND
     1     1     2 1   
     2     1    13 2   
     3     1    24 1   
     4     2     3 2   
     5     2     4 1   
     6     3    23 1   
     7     4     5 1   
     8     4    25 1   
     9     5     6 1   
    10     5    21 1   
    11     5    22 1   
    12     6     7 1   
    13     6    19 1   
    14     6    20 1   
    15     7     8 1   
    16     7    17 1   
    17     7    18 1   
    18     8     9 1   
    19     8    12 1   
    20     8    14 1   
    21     9    10 1   
    22     9    11 1   
    23    12    15 1   
    24    12    16 1   
@<TRIPOS>SUBSTRUCTURE
     1 WT2         1 TEMP              0 ****  ****    0 ROOT
