@<TRIPOS>MOLECULE
WT3
   50    53     1     0     0
SMALL
abcg2


@<TRIPOS>ATOM
      1 N1          11.6160    -9.6070     6.9100 nb         1 WT3      -0.328000
      2 C7          10.6920    -9.9970     7.7960 ca         1 WT3       0.436900
      3 C8          12.4920    -9.9790     9.4840 c3         1 WT3       0.238800
      4 N2          11.1060   -10.1500     9.0690 nu         1 WT3      -0.934100
      5 C9          12.9030    -8.5150     9.6530 c3         1 WT3      -0.120400
      6 C1           6.5160   -12.3030     8.7940 ca         1 WT3       0.111100
      7 C5           9.1290   -10.1040     6.0230 ca         1 WT3       0.183900
      8 C6          11.2620    -9.4670     5.6390 ca         1 WT3       0.423900
      9 N3          15.3000    -8.8350     8.9220 n7         1 WT3      -0.969300
     10 C4           9.3570   -10.2610     7.3780 cp         1 WT3      -0.265000
     11 C3           8.2900   -10.7140     8.2950 cp         1 WT3       0.015000
     12 C2           7.5420   -11.8540     7.9680 ca         1 WT3      -0.174000
     13 N4          12.2040    -9.0440     4.7290 nu         1 WT3      -0.933900
     14 C19          6.2650   -11.5910     9.9710 ca         1 WT3       0.133000
     15 O            5.7410   -13.3880     8.5610 os         1 WT3      -0.330100
     16 C            5.9650   -14.1250     7.3560 c3         1 WT3       0.147900
     17 C18          6.9820   -10.4680    10.3140 ca         1 WT3      -0.113000
     18 C17          7.9970   -10.0230     9.4710 ca         1 WT3      -0.136000
     19 C10         14.3880    -8.3390     9.9640 c3         1 WT3       0.253800
     20 S           16.1630    -7.9310     7.8980 sy         1 WT3       1.212600
     21 O2          17.5010    -8.4780     7.8090 o          1 WT3      -0.549000
     22 C11         15.4400    -8.1180     6.2800 ca         1 WT3      -0.249500
     23 C16         14.1260    -8.5390     6.1790 ca         1 WT3      -0.070000
     24 C15         13.5210    -8.6370     4.9200 ca         1 WT3       0.307000
     25 C14         14.2790    -8.3010     3.7880 ca         1 WT3      -0.124000
     26 C13         15.5950    -7.8830     3.9160 ca         1 WT3      -0.094000
     27 C12         16.2010    -7.7860     5.1640 ca         1 WT3      -0.040000
     28 N           10.0450    -9.7070     5.1290 nb         1 WT3      -0.270000
     29 H1          12.6090   -10.5080    10.4310 h1         1 WT3       0.052700
     30 H2          13.1370   -10.4670     8.7520 h1         1 WT3       0.052700
     31 H3          10.4420   -10.4800     9.7490 hn         1 WT3       0.509000
     32 H4          12.6460    -7.9540     8.7540 hc         1 WT3       0.063200
     33 H5          12.3350    -8.0760    10.4770 hc         1 WT3       0.063200
     34 H6           8.1360   -10.3000     5.6300 h4         1 WT3       0.024100
     35 H7          15.5350    -9.8160     8.9130 hn         1 WT3       0.500000
     36 H8           7.7810   -12.3960     7.0650 ha         1 WT3       0.124000
     37 H9          11.8590    -9.0050     3.7810 hn         1 WT3       0.514000
     38 H10          5.2300   -14.9250     7.3600 h1         1 WT3       0.046367
     39 H11          5.8180   -13.4910     6.4800 h1         1 WT3       0.046367
     40 H12          6.9720   -14.5470     7.3400 h1         1 WT3       0.046367
     41 H13          6.7400    -9.9440    11.2290 ha         1 WT3       0.135000
     42 H14          8.5420    -9.1240     9.7280 ha         1 WT3       0.122000
     43 H15         14.6480    -8.8650    10.8850 h1         1 WT3       0.062700
     44 H16         14.6080    -7.2860    10.1190 h1         1 WT3       0.062700
     45 H17         13.5670    -8.8080     7.0520 ha         1 WT3       0.159000
     46 H18         13.8280    -8.3770     2.8060 ha         1 WT3       0.115000
     47 H19         16.1600    -7.6340     3.0260 ha         1 WT3       0.119000
     48 H20         17.2290    -7.4670     5.2620 ha         1 WT3       0.135000
     49 O1          16.0050    -6.5480     8.2960 o          1 WT3      -0.549000
     50 F            5.2820   -12.0350    10.7930 f          1 WT3      -0.169000
@<TRIPOS>BOND
     1     1     2 ar  
     2     1     8 ar  
     3     2     4 1   
     4     2    10 ar  
     5     3     4 1   
     6     3     5 1   
     7     3    29 1   
     8     3    30 1   
     9     4    31 1   
    10     5    19 1   
    11     5    32 1   
    12     5    33 1   
    13     6    12 ar  
    14     6    14 ar  
    15     6    15 1   
    16     7    10 ar  
    17     7    28 ar  
    18     7    34 1   
    19     8    13 1   
    20     8    28 ar  
    21     9    19 1   
    22     9    20 1   
    23     9    35 1   
    24    10    11 1   
    25    11    12 ar  
    26    11    18 ar  
    27    12    36 1   
    28    13    24 1   
    29    13    37 1   
    30    14    17 ar  
    31    14    50 1   
    32    15    16 1   
    33    16    38 1   
    34    16    39 1   
    35    16    40 1   
    36    17    18 ar  
    37    17    41 1   
    38    18    42 1   
    39    19    43 1   
    40    19    44 1   
    41    20    21 2   
    42    20    22 1   
    43    20    49 2   
    44    22    23 ar  
    45    22    27 ar  
    46    23    24 ar  
    47    23    45 1   
    48    24    25 ar  
    49    25    26 ar  
    50    25    46 1   
    51    26    27 ar  
    52    26    47 1   
    53    27    48 1   
@<TRIPOS>SUBSTRUCTURE
     1 WT3         1 TEMP              0 ****  ****    0 ROOT
