@<TRIPOS>MOLECULE
WT3
   50    53     1     0     0
SMALL
No Charge or Current Charge


@<TRIPOS>ATOM
      1 N1          11.6340    -9.6650     6.7170 nb         1 WT3      -0.328000
      2 C7          10.7610   -10.0990     7.6250 ca         1 WT3       0.436900
      3 C8          12.7190   -10.2590     9.2950 c3         1 WT3       0.238800
      4 N2          11.3080   -10.4230     8.8640 nu         1 WT3      -0.934100
      5 C9          13.0360    -8.7960     9.6860 c3         1 WT3      -0.120400
      6 C1           6.4780   -12.2150     8.8500 ca         1 WT3       0.111100
      7 C5           9.0210    -9.9270     5.9890 ca         1 WT3       0.183900
      8 C6          11.1700    -9.3460     5.5060 ca         1 WT3       0.423900
      9 N3          15.4050    -8.6280     8.8440 n7         1 WT3      -0.969300
     10 C4           9.3880   -10.2560     7.3200 cp         1 WT3      -0.265000
     11 C3           8.3710   -10.7360     8.3000 cp         1 WT3       0.015000
     12 C2           7.4560   -11.7540     7.9380 ca         1 WT3      -0.174000
     13 N4          12.1080    -8.8580     4.6050 nu         1 WT3      -0.933900
     14 C19          6.4150   -11.6400    10.1370 ca         1 WT3       0.133000
     15 O            5.5770   -13.2140     8.5220 os         1 WT3      -0.330100
     16 C            5.5690   -13.8530     7.2330 c3         1 WT3       0.147900
     17 C18          7.3060   -10.6220    10.5070 ca         1 WT3      -0.113000
     18 C17          8.2740   -10.1710     9.5940 ca         1 WT3      -0.136000
     19 C10         14.5260    -8.5560    10.0360 c3         1 WT3       0.253800
     20 S           15.7040    -7.2440     7.9520 sy         1 WT3       1.212600
     21 O2          17.1500    -7.0560     8.0610 o          1 WT3      -0.549000
     22 C11         15.2480    -7.7920     6.2980 ca         1 WT3      -0.249500
     23 C16         13.8850    -7.9460     5.9980 ca         1 WT3      -0.070000
     24 C15         13.4600    -8.5270     4.7900 ca         1 WT3       0.307000
     25 C14         14.4200    -8.8410     3.8130 ca         1 WT3      -0.124000
     26 C13         15.7900    -8.6340     4.0760 ca         1 WT3      -0.094000
     27 C12         16.2100    -8.1350     5.3260 ca         1 WT3      -0.040000
     28 N            9.9060    -9.4670     5.0800 nb         1 WT3      -0.270000
     29 H1          12.9120   -10.8970    10.1680 h1         1 WT3       0.052700
     30 H2          13.4010   -10.5880     8.4980 h1         1 WT3       0.052700
     31 H3          10.6540   -10.8350     9.5280 hn         1 WT3       0.509000
     32 H4          12.7270    -8.1130     8.8900 hc         1 WT3       0.063200
     33 H5          12.4300    -8.5380    10.5620 hc         1 WT3       0.063200
     34 H6           7.9890   -10.0180     5.6540 h4         1 WT3       0.024100
     35 H7          16.3590    -8.7430     9.1860 hn         1 WT3       0.500000
     36 H8           7.5310   -12.1810     6.9430 ha         1 WT3       0.124000
     37 H9          11.8040    -8.9150     3.6330 hn         1 WT3       0.514000
     38 H10          4.7760   -14.6110     7.1900 h1         1 WT3       0.046367
     39 H11          5.3830   -13.1220     6.4360 h1         1 WT3       0.046367
     40 H12          6.5260   -14.3530     7.0380 h1         1 WT3       0.046367
     41 H13          7.2410   -10.1790    11.4990 ha         1 WT3       0.135000
     42 H14          8.9430    -9.3650     9.8850 ha         1 WT3       0.122000
     43 H15         14.8180    -9.3300    10.7590 h1         1 WT3       0.062700
     44 H16         14.6320    -7.5940    10.5600 h1         1 WT3       0.062700
     45 H17         13.1460    -7.6530     6.7350 ha         1 WT3       0.159000
     46 H18         14.1130    -9.2800     2.8680 ha         1 WT3       0.115000
     47 H19         16.5310    -8.8960     3.3240 ha         1 WT3       0.119000
     48 H20         17.2730    -8.0250     5.5330 ha         1 WT3       0.135000
     49 O1          14.7550    -6.2340     8.4290 o          1 WT3      -0.549000
     50 F            5.4870   -12.0620    11.0290 f          1 WT3      -0.169000
@<TRIPOS>BOND
     1     1     2 ar  
     2     1     8 ar  
     3     2     4 1   
     4     2    10 ar  
     5     3     4 1   
     6     3     5 1   
     7     3    29 1   
     8     3    30 1   
     9     4    31 1   
    10     5    19 1   
    11     5    32 1   
    12     5    33 1   
    13     6    12 ar  
    14     6    14 ar  
    15     6    15 1   
    16     7    10 ar  
    17     7    28 ar  
    18     7    34 1   
    19     8    13 1   
    20     8    28 ar  
    21     9    19 1   
    22     9    20 1   
    23     9    35 1   
    24    10    11 1   
    25    11    12 ar  
    26    11    18 ar  
    27    12    36 1   
    28    13    24 1   
    29    13    37 1   
    30    14    17 ar  
    31    14    50 1   
    32    15    16 1   
    33    16    38 1   
    34    16    39 1   
    35    16    40 1   
    36    17    18 ar  
    37    17    41 1   
    38    18    42 1   
    39    19    43 1   
    40    19    44 1   
    41    20    21 2   
    42    20    22 1   
    43    20    49 2   
    44    22    23 ar  
    45    22    27 ar  
    46    23    24 ar  
    47    23    45 1   
    48    24    25 ar  
    49    25    26 ar  
    50    25    46 1   
    51    26    27 ar  
    52    26    47 1   
    53    27    48 1   
@<TRIPOS>SUBSTRUCTURE
     1 WT3         1 TEMP              0 ****  ****    0 ROOT
