@<TRIPOS>MOLECULE
WT5
   62    65     1     0     0
SMALL
abcg2


@<TRIPOS>ATOM
      1 N1         -38.2480   -31.3170   -67.3860 n3         1 WT5      -0.715600
      2 N3         -44.3440   -33.5820   -64.6390 nu         1 WT5      -0.956200
      3 C4         -38.3020   -32.7340   -67.7320 c6         1 WT5       0.125800
      4 C5         -36.8590   -30.8420   -67.3530 c6         1 WT5       0.170500
      5 C6         -36.7160   -29.3940   -66.9070 c3         1 WT5       0.155600
      6 C7         -39.0060   -31.0560   -66.1620 c3         1 WT5       0.121500
      7 C8         -40.4810   -31.3090   -66.3540 ca         1 WT5       0.345300
      8 C13        -44.9030   -30.6100   -62.4950 ca         1 WT5      -0.034300
      9 C15        -46.2840   -30.4970   -62.5840 ca         1 WT5      -0.141000
     10 C17        -48.4810   -31.2570   -63.4460 cc         1 WT5      -0.129000
     11 C20        -50.5690   -31.6050   -64.2240 cc         1 WT5      -0.190000
     12 C21        -46.3590   -32.4110   -64.0470 ca         1 WT5      -0.195000
     13 C22        -43.1540   -31.7950   -66.6410 ca         1 WT5      -0.150000
     14 C24        -41.2050   -30.5650   -67.2850 ca         1 WT5      -0.135000
     15 C1         -36.2540   -31.0360   -68.7540 c6         1 WT5       0.133300
     16 C11        -44.9630   -32.5370   -63.9720 ca         1 WT5       0.313000
     17 C12        -44.2430   -31.6240   -63.1940 ca         1 WT5      -0.175000
     18 C16        -47.0290   -31.3980   -63.3650 ca         1 WT5       0.041000
     19 C18        -49.3580   -30.5110   -62.6710 cd         1 WT5      -0.154000
     20 C19        -50.6710   -30.7320   -63.1610 cd         1 WT5      -0.182000
     21 C2         -36.3250   -32.4850   -69.2120 c6         1 WT5       0.175300
     22 C23        -42.5610   -30.8140   -67.4260 ca         1 WT5      -0.075000
     23 C3         -37.7440   -32.9960   -69.1260 c6         1 WT5       0.173300
     24 C9         -42.3630   -32.4920   -65.7360 ca         1 WT5       0.307300
     25 N2         -41.0530   -32.2490   -65.5970 nb         1 WT5      -0.683000
     26 N4         -49.2470   -31.9160   -64.3810 na         1 WT5      -0.110000
     27 O1         -34.8670   -30.6840   -68.7870 oh         1 WT5      -0.736000
     28 O2         -35.8490   -32.6090   -70.5490 oh         1 WT5      -0.648000
     29 O3         -37.7320   -34.3970   -69.4070 oh         1 WT5      -0.707000
     30 O4         -37.4890   -28.5440   -67.7560 oh         1 WT5      -0.657000
     31 H2         -44.9050   -34.0250   -65.3490 hn         1 WT5       0.465000
     32 H3         -39.3410   -33.0660   -67.7080 h1         1 WT5       0.048200
     33 H4         -37.7440   -33.3490   -67.0050 h1         1 WT5       0.048200
     34 H5         -36.2580   -31.4380   -66.6420 h1         1 WT5       0.042700
     35 H6         -35.6560   -29.1350   -66.9600 h1         1 WT5       0.028700
     36 H7         -37.0220   -29.2810   -65.8640 h1         1 WT5       0.028700
     37 H8         -38.6510   -31.6670   -65.3190 h1         1 WT5       0.054200
     38 H9         -38.8800   -30.0100   -65.8920 h1         1 WT5       0.054200
     39 H12        -46.7880   -29.6960   -62.0590 ha         1 WT5       0.117000
     40 H13        -51.3180   -32.0200   -64.8760 h4         1 WT5       0.144000
     41 H14        -46.9050   -33.1380   -64.6370 ha         1 WT5       0.098000
     42 H15        -44.2090   -32.0110   -66.7230 ha         1 WT5       0.122000
     43 H16        -40.7050   -29.8100   -67.8760 ha         1 WT5       0.142000
     44 H17        -36.8090   -30.4160   -69.4620 h1         1 WT5       0.072700
     45 H18        -43.1660   -31.6920   -63.1290 ha         1 WT5       0.120000
     46 H19        -43.3340   -29.1520   -62.2580 hc         1 WT5       0.043033
     47 H20        -44.7430   -28.8750   -61.2250 hc         1 WT5       0.043033
     48 H21        -43.5940   -30.1620   -60.8430 hc         1 WT5       0.043033
     49 H22        -49.0820   -29.8910   -61.8340 ha         1 WT5       0.131000
     50 H23        -51.5850   -30.3050   -62.7800 ha         1 WT5       0.132000
     51 H24        -35.7000   -33.0880   -68.5380 h1         1 WT5       0.054700
     52 H25        -43.1530   -30.2480   -68.1360 ha         1 WT5       0.122000
     53 H26        -38.3540   -32.4690   -69.8680 h1         1 WT5       0.057700
     54 H27        -48.8890   -32.5090   -65.1110 hn         1 WT5       0.340000
     55 H28        -34.7820   -29.7550   -69.0290 ho         1 WT5       0.510000
     56 H29        -35.0100   -32.1300   -70.5850 ho         1 WT5       0.452000
     57 H30        -38.6460   -34.7010   -69.4670 ho         1 WT5       0.501000
     58 H31        -37.3170   -27.6300   -67.4990 ho         1 WT5       0.440000
     59 C10        -42.9190   -33.6070   -64.8680 c3         1 WT5       0.161500
     60 C14        -44.1040   -29.6440   -61.6590 c3         1 WT5      -0.048800
     61 H10        -42.6810   -34.5630   -65.3400 h1         1 WT5       0.072200
     62 H11        -42.3820   -33.5940   -63.9170 h1         1 WT5       0.072200
@<TRIPOS>BOND
     1     1     3 1   
     2     1     4 1   
     3     1     6 1   
     4     2    16 1   
     5     2    31 1   
     6     2    59 1   
     7     3    23 1   
     8     3    32 1   
     9     3    33 1   
    10     4     5 1   
    11     4    15 1   
    12     4    34 1   
    13     5    30 1   
    14     5    35 1   
    15     5    36 1   
    16     6     7 1   
    17     6    37 1   
    18     6    38 1   
    19     7    14 ar  
    20     7    25 ar  
    21     8     9 ar  
    22     8    17 ar  
    23     8    60 1   
    24     9    18 ar  
    25     9    39 1   
    26    10    18 1   
    27    10    19 2   
    28    10    26 1   
    29    11    20 2   
    30    11    26 1   
    31    11    40 1   
    32    12    16 ar  
    33    12    18 ar  
    34    12    41 1   
    35    13    22 ar  
    36    13    24 ar  
    37    13    42 1   
    38    14    22 ar  
    39    14    43 1   
    40    15    21 1   
    41    15    27 1   
    42    15    44 1   
    43    16    17 ar  
    44    17    45 1   
    45    19    20 1   
    46    19    49 1   
    47    20    50 1   
    48    21    23 1   
    49    21    28 1   
    50    21    51 1   
    51    22    52 1   
    52    23    29 1   
    53    23    53 1   
    54    24    25 ar  
    55    24    59 1   
    56    26    54 1   
    57    27    55 1   
    58    28    56 1   
    59    29    57 1   
    60    30    58 1   
    61    46    60 1   
    62    47    60 1   
    63    48    60 1   
    64    59    61 1   
    65    59    62 1   
@<TRIPOS>SUBSTRUCTURE
     1 WT5         1 TEMP              0 ****  ****    0 ROOT
