@<TRIPOS>MOLECULE
WT5
   62    65     1     0     0
SMALL
No Charge or Current Charge


@<TRIPOS>ATOM
      1 N1         -38.5520   -31.2470   -67.4790 n3         1 WT5      -0.715600
      2 N3         -44.6040   -33.9290   -64.6970 nu         1 WT5      -0.956200
      3 C4         -38.3390   -32.6770   -67.8690 c6         1 WT5       0.125800
      4 C5         -37.2450   -30.5640   -67.1290 c6         1 WT5       0.170500
      5 C6         -37.3940   -29.0540   -66.6930 c3         1 WT5       0.155600
      6 C7         -39.6110   -31.1190   -66.4220 c3         1 WT5       0.121500
      7 C8         -40.9840   -31.7160   -66.7760 ca         1 WT5       0.345300
      8 C13        -44.4020   -30.7920   -62.7030 ca         1 WT5      -0.034300
      9 C15        -45.7630   -30.4400   -62.6610 ca         1 WT5      -0.141000
     10 C17        -48.1670   -30.8900   -63.2560 cc         1 WT5      -0.129000
     11 C20        -50.4240   -30.8500   -63.6380 cc         1 WT5      -0.190000
     12 C21        -46.3220   -32.4080   -63.9650 ca         1 WT5      -0.195000
     13 C22        -43.4410   -32.8160   -67.3650 ca         1 WT5      -0.150000
     14 C24        -41.6690   -31.2880   -67.9290 ca         1 WT5      -0.135000
     15 C1         -36.2190   -30.6870   -68.3150 c6         1 WT5       0.133300
     16 C11        -44.9680   -32.7670   -64.0130 ca         1 WT5       0.313000
     17 C12        -44.0110   -31.9610   -63.3760 ca         1 WT5      -0.175000
     18 C16        -46.7400   -31.2430   -63.2880 ca         1 WT5       0.041000
     19 C18        -48.7210   -29.9270   -62.4550 cd         1 WT5      -0.154000
     20 C19        -50.1100   -29.9040   -62.6980 cd         1 WT5      -0.182000
     21 C2         -35.9920   -32.1770   -68.6940 c6         1 WT5       0.175300
     22 C23        -42.9190   -31.8460   -68.2350 ca         1 WT5      -0.075000
     23 C3         -37.3490   -32.8530   -69.0560 c6         1 WT5       0.173300
     24 C9         -42.7020   -33.1940   -66.2250 ca         1 WT5       0.307300
     25 N2         -41.4900   -32.6560   -65.9370 nb         1 WT5      -0.683000
     26 N4         -49.2140   -31.4660   -63.9770 na         1 WT5      -0.110000
     27 O1         -34.9390   -30.0750   -68.0140 oh         1 WT5      -0.736000
     28 O2         -35.0440   -32.2410   -69.7790 oh         1 WT5      -0.648000
     29 O3         -37.1780   -34.2580   -69.3580 oh         1 WT5      -0.707000
     30 O4         -37.9120   -28.1990   -67.7300 oh         1 WT5      -0.657000
     31 H2         -45.3870   -34.4740   -65.0630 hn         1 WT5       0.465000
     32 H3         -39.2940   -33.1380   -68.1610 h1         1 WT5       0.048200
     33 H4         -37.9640   -33.2480   -67.0060 h1         1 WT5       0.048200
     34 H5         -36.8060   -31.0840   -66.2650 h1         1 WT5       0.042700
     35 H6         -36.4110   -28.6880   -66.3690 h1         1 WT5       0.028700
     36 H7         -38.0330   -29.0000   -65.8030 h1         1 WT5       0.028700
     37 H8         -39.2580   -31.5750   -65.4880 h1         1 WT5       0.054200
     38 H9         -39.8010   -30.0610   -66.2030 h1         1 WT5       0.054200
     39 H12        -46.0500   -29.5310   -62.1420 ha         1 WT5       0.117000
     40 H13        -51.3740   -31.1330   -64.0790 h4         1 WT5       0.144000
     41 H14        -47.0530   -33.0420   -64.4560 ha         1 WT5       0.098000
     42 H15        -44.4080   -33.2690   -67.5630 ha         1 WT5       0.122000
     43 H16        -41.2240   -30.5350   -68.5750 ha         1 WT5       0.142000
     44 H17        -36.6690   -30.1900   -69.1890 h1         1 WT5       0.072700
     45 H18        -42.9620   -32.2380   -63.4010 ha         1 WT5       0.120000
     46 H19        -42.3870   -29.9910   -62.5200 hc         1 WT5       0.043033
     47 H20        -43.6570   -28.8620   -62.0320 hc         1 WT5       0.043033
     48 H21        -43.2260   -30.2170   -60.9750 hc         1 WT5       0.043033
     49 H22        -48.2010   -29.2900   -61.7470 ha         1 WT5       0.131000
     50 H23        -50.8240   -29.2440   -62.2120 ha         1 WT5       0.132000
     51 H24        -35.5800   -32.6910   -67.8120 h1         1 WT5       0.054700
     52 H25        -43.4700   -31.5340   -69.1210 ha         1 WT5       0.122000
     53 H26        -37.7680   -32.3290   -69.9290 h1         1 WT5       0.057700
     54 H27        -49.1120   -32.2170   -64.6520 hn         1 WT5       0.340000
     55 H28        -35.0690   -29.0980   -68.0710 ho         1 WT5       0.510000
     56 H29        -34.3900   -31.5380   -69.5600 ho         1 WT5       0.452000
     57 H30        -37.9570   -34.5320   -69.8940 ho         1 WT5       0.501000
     58 H31        -38.0870   -27.3230   -67.3200 ho         1 WT5       0.440000
     59 C10        -43.2540   -34.2510   -65.2470 c3         1 WT5       0.161500
     60 C14        -43.3610   -29.9180   -62.0210 c3         1 WT5      -0.048800
     61 H10        -43.2890   -35.2140   -65.7760 h1         1 WT5       0.072200
     62 H11        -42.5390   -34.3750   -64.4220 h1         1 WT5       0.072200
@<TRIPOS>BOND
     1     1     3 1   
     2     1     4 1   
     3     1     6 1   
     4     2    16 1   
     5     2    31 1   
     6     2    59 1   
     7     3    23 1   
     8     3    32 1   
     9     3    33 1   
    10     4     5 1   
    11     4    15 1   
    12     4    34 1   
    13     5    30 1   
    14     5    35 1   
    15     5    36 1   
    16     6     7 1   
    17     6    37 1   
    18     6    38 1   
    19     7    14 ar  
    20     7    25 ar  
    21     8     9 ar  
    22     8    17 ar  
    23     8    60 1   
    24     9    18 ar  
    25     9    39 1   
    26    10    18 1   
    27    10    19 2   
    28    10    26 1   
    29    11    20 2   
    30    11    26 1   
    31    11    40 1   
    32    12    16 ar  
    33    12    18 ar  
    34    12    41 1   
    35    13    22 ar  
    36    13    24 ar  
    37    13    42 1   
    38    14    22 ar  
    39    14    43 1   
    40    15    21 1   
    41    15    27 1   
    42    15    44 1   
    43    16    17 ar  
    44    17    45 1   
    45    19    20 1   
    46    19    49 1   
    47    20    50 1   
    48    21    23 1   
    49    21    28 1   
    50    21    51 1   
    51    22    52 1   
    52    23    29 1   
    53    23    53 1   
    54    24    25 ar  
    55    24    59 1   
    56    26    54 1   
    57    27    55 1   
    58    28    56 1   
    59    29    57 1   
    60    30    58 1   
    61    46    60 1   
    62    47    60 1   
    63    48    60 1   
    64    59    61 1   
    65    59    62 1   
@<TRIPOS>SUBSTRUCTURE
     1 WT5         1 TEMP              0 ****  ****    0 ROOT
