@<TRIPOS>MOLECULE
WT7
   48    50     1     0     0
SMALL
bcc


@<TRIPOS>ATOM
      1 C11        -13.3560     7.4570   -26.4800 c5         1 WT7       0.100100
      2 C10        -12.5730     6.8080   -25.3670 c3         1 WT7       0.201400
      3 C01        -14.7780     3.7300   -22.6470 c3         1 WT7      -0.083100
      4 C02        -13.5980     2.8110   -22.3610 c3         1 WT7      -0.062400
      5 C03        -12.9440     2.2290   -23.6110 c3         1 WT7      -0.074400
      6 C04        -12.4660     3.2550   -24.6200 c3         1 WT7       0.201400
      7 C13        -15.4680     7.0860   -27.3890 c5         1 WT7       0.262800
      8 C15        -16.3190     5.5370   -25.5540 cc         1 WT7       0.433700
      9 C17        -18.4070     5.7920   -25.7440 ca         1 WT7      -0.224200
     10 C18        -19.8130     5.7910   -25.6870 ca         1 WT7       0.774200
     11 C21        -19.7890     7.3140   -27.4130 ca         1 WT7       0.693900
     12 C23        -17.8340     6.6160   -26.7000 ca         1 WT7       0.439800
     13 C24        -15.3540     8.5790   -27.0840 c5         1 WT7       0.114100
     14 C26        -14.2870     8.5730   -25.9930 c5         1 WT7       0.069100
     15 N14        -16.4870     6.4460   -26.5610 na         1 WT7      -0.273000
     16 N16        -17.4410     5.1240   -25.0380 nd         1 WT7      -0.573100
     17 N19        -20.5020     5.0460   -24.8220 nv         1 WT7      -0.962500
     18 N20        -20.4760     6.5730   -26.5470 nb         1 WT7      -0.840000
     19 N22        -18.4790     7.4000   -27.5630 nb         1 WT7      -0.740000
     20 O05        -11.5910     4.1730   -23.9880 os         1 WT7      -0.582200
     21 O07         -9.7480     4.2740   -25.7850 o          1 WT7      -0.807000
     22 O08        -10.0250     6.1130   -23.9340 o          1 WT7      -0.807000
     23 O09        -11.6770     5.8600   -25.9000 os         1 WT7      -0.561200
     24 O12        -14.2280     6.5140   -27.1110 os         1 WT7      -0.374600
     25 O25        -14.8980     9.1990   -28.2550 oh         1 WT7      -0.586800
     26 O27        -13.6880     9.8310   -25.8930 oh         1 WT7      -0.600800
     27 P06        -10.5980     5.1170   -24.8910 p5         1 WT7       1.388800
     28 H1         -12.6640     7.8640   -27.2260 h1         1 WT7       0.089700
     29 H2         -12.0370     7.6000   -24.8310 h1         1 WT7       0.023200
     30 H3         -13.2680     6.3490   -24.6500 h1         1 WT7       0.023200
     31 H4         -15.2850     4.0150   -21.7240 hc         1 WT7       0.024367
     32 H5         -14.4610     4.6520   -23.1360 hc         1 WT7       0.024367
     33 H6         -15.5150     3.2490   -23.2930 hc         1 WT7       0.024367
     34 H7         -13.9320     1.9790   -21.7350 hc         1 WT7       0.033200
     35 H8         -12.8530     3.3490   -21.7700 hc         1 WT7       0.033200
     36 H9         -13.6580     1.5780   -24.1260 hc         1 WT7       0.027700
     37 H10        -12.1040     1.5910   -23.3190 hc         1 WT7       0.027700
     38 H11        -13.3230     3.7880   -25.0490 h1         1 WT7       0.016200
     39 H12        -11.9680     2.7400   -25.4490 h1         1 WT7       0.016200
     40 H13        -15.7460     6.9160   -28.4330 h2         1 WT7       0.112700
     41 H14        -15.3430     5.2040   -25.2440 h5         1 WT7       0.093800
     42 H15        -20.3880     7.9240   -28.0810 h5         1 WT7       0.038100
     43 H16        -16.3020     9.0050   -26.7380 h1         1 WT7       0.069700
     44 H17        -14.7550     8.2720   -25.0450 h1         1 WT7       0.049700
     45 H18        -21.5060     5.0820   -24.8080 hn         1 WT7       0.447300
     46 H19        -20.0360     4.4560   -24.1550 hn         1 WT7       0.447300
     47 H21        -14.5730    10.0780   -28.0290 ho         1 WT7       0.427000
     48 H22        -13.1940     9.8880   -25.0700 ho         1 WT7       0.426000
@<TRIPOS>BOND
     1     1     2 1   
     2     1    14 1   
     3     1    24 1   
     4     1    28 1   
     5     2    23 1   
     6     2    29 1   
     7     2    30 1   
     8     3     4 1   
     9     3    31 1   
    10     3    32 1   
    11     3    33 1   
    12     4     5 1   
    13     4    34 1   
    14     4    35 1   
    15     5     6 1   
    16     5    36 1   
    17     5    37 1   
    18     6    20 1   
    19     6    38 1   
    20     6    39 1   
    21     7    13 1   
    22     7    15 1   
    23     7    24 1   
    24     7    40 1   
    25     8    15 1   
    26     8    16 2   
    27     8    41 1   
    28     9    10 ar  
    29     9    12 ar  
    30     9    16 1   
    31    10    17 1   
    32    10    18 ar  
    33    11    18 ar  
    34    11    19 ar  
    35    11    42 1   
    36    12    15 1   
    37    12    19 ar  
    38    13    14 1   
    39    13    25 1   
    40    13    43 1   
    41    14    26 1   
    42    14    44 1   
    43    17    45 1   
    44    17    46 1   
    45    20    27 1   
    46    21    27 1   
    47    22    27 1   
    48    23    27 1   
    49    25    47 1   
    50    26    48 1   
@<TRIPOS>SUBSTRUCTURE
     1 WT7         1 TEMP              0 ****  ****    0 ROOT
