@<TRIPOS>MOLECULE
WT7
   48    50     1     0     0
SMALL
No Charge or Current Charge


@<TRIPOS>ATOM
      1 C11        -12.9850     7.9280   -26.3640 c5         1 WT7       0.123300
      2 C10        -11.8280     7.3170   -25.5200 c3         1 WT7       0.224600
      3 C01        -16.0680     2.7310   -23.4660 c3         1 WT7      -0.083100
      4 C02        -14.6380     2.2200   -23.7420 c3         1 WT7      -0.062400
      5 C03        -14.1010     2.5680   -25.1520 c3         1 WT7      -0.074400
      6 C04        -13.9540     4.0840   -25.4350 c3         1 WT7       0.224600
      7 C13        -15.3070     7.7490   -26.7520 c5         1 WT7       0.315300
      8 C15        -16.6910     7.7540   -24.5990 cc         1 WT7       0.433700
      9 C17        -17.8850     5.9930   -24.9310 ca         1 WT7      -0.093600
     10 C18        -18.7810     4.9050   -24.8620 ca         1 WT7       0.445900
     11 C21        -18.0170     4.1950   -26.8980 ca         1 WT7       0.167900
     12 C23        -17.0860     6.1020   -26.0420 ca         1 WT7       0.111500
     13 C24        -14.9320     9.2750   -26.6260 c5         1 WT7       0.137300
     14 C26        -13.6480     9.1970   -25.7500 c5         1 WT7       0.092300
     15 N14        -16.3260     7.2190   -25.8400 na         1 WT7      -0.302300
     16 N16        -17.6570     7.0210   -24.0110 nd         1 WT7      -0.573100
     17 N19        -19.6150     4.7070   -23.8060 nv         1 WT7      -1.072900
     18 N20        -18.8490     3.9970   -25.8470 nb         1 WT7      -0.314000
     19 N22        -17.1320     5.2100   -27.0510 nb         1 WT7      -0.214000
     20 O05        -12.9970     4.6650   -24.5400 os         1 WT7      -0.605400
     21 O07        -10.9370     3.5290   -25.5980 o          1 WT7      -0.807000
     22 O08        -10.5980     5.1440   -23.7650 o          1 WT7      -0.807000
     23 O09        -11.5260     5.9940   -25.9920 os         1 WT7      -0.584400
     24 O12        -14.0870     7.0050   -26.5180 os         1 WT7      -0.421000
     25 O25        -14.5880     9.8920   -27.8760 oh         1 WT7      -0.709000
     26 O27        -12.8580    10.3930   -25.8980 oh         1 WT7      -0.723000
     27 P06        -11.4380     4.7730   -24.9420 p5         1 WT7       1.388800
     28 H1         -12.5860     8.1480   -27.3640 h1         1 WT7       0.089700
     29 H2         -10.9450     7.9630   -25.6010 h1         1 WT7       0.023200
     30 H3         -12.1370     7.3040   -24.4650 h1         1 WT7       0.023200
     31 H4         -16.4120     2.3840   -22.4850 hc         1 WT7       0.024367
     32 H5         -16.1030     3.8270   -23.4670 hc         1 WT7       0.024367
     33 H6         -16.7660     2.3590   -24.2250 hc         1 WT7       0.024367
     34 H7         -14.6300     1.1290   -23.6260 hc         1 WT7       0.033200
     35 H8         -13.9580     2.6190   -22.9790 hc         1 WT7       0.033200
     36 H9         -14.7820     2.1440   -25.9000 hc         1 WT7       0.027700
     37 H10        -13.1380     2.0680   -25.3010 hc         1 WT7       0.027700
     38 H11        -14.9270     4.5740   -25.3130 h1         1 WT7       0.016200
     39 H12        -13.6470     4.2240   -26.4810 h1         1 WT7       0.016200
     40 H13        -15.6800     7.5480   -27.7640 h2         1 WT7       0.112700
     41 H14        -16.2340     8.6460   -24.1860 h5         1 WT7       0.093800
     42 H15        -18.0640     3.4640   -27.7030 h5         1 WT7       0.038100
     43 H16        -15.7250     9.8500   -26.1290 h1         1 WT7       0.069700
     44 H17        -13.9080     9.0280   -24.6950 h1         1 WT7       0.049700
     45 H18        -20.0060     3.7780   -23.6780 hn         1 WT7       0.502500
     46 H19        -19.4290     5.2460   -22.9650 hn         1 WT7       0.502500
     47 H21        -13.8030    10.4470   -27.6260 ho         1 WT7       0.526000
     48 H22        -12.3260    10.5090   -25.0720 ho         1 WT7       0.525000
@<TRIPOS>BOND
     1     1     2 1   
     2     1    14 1   
     3     1    24 1   
     4     1    28 1   
     5     2    23 1   
     6     2    29 1   
     7     2    30 1   
     8     3     4 1   
     9     3    31 1   
    10     3    32 1   
    11     3    33 1   
    12     4     5 1   
    13     4    34 1   
    14     4    35 1   
    15     5     6 1   
    16     5    36 1   
    17     5    37 1   
    18     6    20 1   
    19     6    38 1   
    20     6    39 1   
    21     7    13 1   
    22     7    15 1   
    23     7    24 1   
    24     7    40 1   
    25     8    15 1   
    26     8    16 2   
    27     8    41 1   
    28     9    10 ar  
    29     9    12 ar  
    30     9    16 1   
    31    10    17 1   
    32    10    18 ar  
    33    11    18 ar  
    34    11    19 ar  
    35    11    42 1   
    36    12    15 1   
    37    12    19 ar  
    38    13    14 1   
    39    13    25 1   
    40    13    43 1   
    41    14    26 1   
    42    14    44 1   
    43    17    45 1   
    44    17    46 1   
    45    20    27 1   
    46    21    27 1   
    47    22    27 1   
    48    23    27 1   
    49    25    47 1   
    50    26    48 1   
@<TRIPOS>SUBSTRUCTURE
     1 WT7         1 TEMP              0 ****  ****    0 ROOT
