@<TRIPOS>MOLECULE
WTA
   42    44     1     0     0
SMALL
No Charge or Current Charge


@<TRIPOS>ATOM
      1 C1         -15.2290     7.5920   -25.9480 c5         1 WTA       0.313300
      2 C1P        -13.9070     3.6170   -24.2250 c3         1 WTA       0.217600
      3 C2         -18.3370     4.4200   -26.4470 ca         1 WTA       0.166900
      4 C7         -14.7230     9.0840   -25.8520 c5         1 WTA       0.137300
      5 C2P        -15.3140     3.8150   -23.6350 c3         1 WTA      -0.096100
      6 C3         -13.5320     8.9410   -24.8600 c5         1 WTA       0.091300
      7 C4         -17.2920     6.2130   -25.4860 ca         1 WTA       0.110500
      8 C9         -12.9600     7.5730   -25.3330 c5         1 WTA       0.124300
      9 C5         -18.2450     6.2420   -24.5000 ca         1 WTA      -0.091600
     10 C10        -11.9350     6.9170   -24.3690 c3         1 WTA       0.225600
     11 C6         -19.2770     5.2810   -24.5460 ca         1 WTA       0.441900
     12 C8         -16.8900     7.8460   -24.0220 cc         1 WTA       0.435700
     13 N1         -19.3260     4.3600   -25.5220 nb         1 WTA      -0.313000
     14 N3         -17.3130     5.3060   -26.4830 nb         1 WTA      -0.213000
     15 N6         -20.2680     5.2190   -23.6160 nv         1 WTA      -1.069900
     16 N7         -18.0160     7.2610   -23.5700 nd         1 WTA      -0.573100
     17 N9         -16.4280     7.2290   -25.1910 na         1 WTA      -0.300300
     18 O1P        -10.5710     4.8120   -22.6470 o          1 WTA      -0.806500
     19 O2         -14.2120     9.6010   -27.0880 oh         1 WTA      -0.709000
     20 O2P        -10.9290     3.1590   -24.4470 o          1 WTA      -0.806500
     21 O3         -12.6100    10.0390   -25.0090 oh         1 WTA      -0.723000
     22 O3P        -12.9740     4.2260   -23.3290 os         1 WTA      -0.609400
     23 O4         -14.1450     6.7590   -25.4740 os         1 WTA      -0.414000
     24 O5         -11.6160     5.6010   -24.8460 os         1 WTA      -0.579400
     25 P          -11.4390     4.3990   -23.7890 p5         1 WTA       1.387800
     26 H1         -15.4510     7.3540   -26.9960 h2         1 WTA       0.113700
     27 H2         -13.8620     4.0790   -25.2200 h1         1 WTA       0.021200
     28 H3         -13.7040     2.5430   -24.3300 h1         1 WTA       0.021200
     29 H4         -18.3680     3.6780   -27.2430 h5         1 WTA       0.038100
     30 H5         -15.4990     9.7550   -25.4560 h1         1 WTA       0.067700
     31 H6         -16.0700     3.3960   -24.3080 hc         1 WTA       0.023367
     32 H7         -15.4020     3.3120   -22.6640 hc         1 WTA       0.023367
     33 H8         -15.5290     4.8810   -23.4960 hc         1 WTA       0.023367
     34 H9         -13.8960     8.8730   -23.8240 h1         1 WTA       0.049700
     35 H10        -12.4850     7.6670   -26.3200 h1         1 WTA       0.086700
     36 H11        -11.0300     7.5370   -24.3280 h1         1 WTA       0.020200
     37 H12        -12.3700     6.8840   -23.3600 h1         1 WTA       0.020200
     38 H13        -16.3780     8.6820   -23.5590 h5         1 WTA       0.093800
     39 H14        -20.7910     4.3520   -23.5340 hn         1 WTA       0.500000
     40 H15        -20.1310     5.7540   -22.7620 hn         1 WTA       0.500000
     41 H17        -13.3970    10.0840   -26.7890 ho         1 WTA       0.525000
     42 H18        -12.1390    10.1580   -24.1480 ho         1 WTA       0.524000
@<TRIPOS>BOND
     1     1     4 1   
     2     1    17 1   
     3     1    23 1   
     4     1    26 1   
     5     2     5 1   
     6     2    22 1   
     7     2    27 1   
     8     2    28 1   
     9     3    13 ar  
    10     3    14 ar  
    11     3    29 1   
    12     4     6 1   
    13     4    19 1   
    14     4    30 1   
    15     5    31 1   
    16     5    32 1   
    17     5    33 1   
    18     6     8 1   
    19     6    21 1   
    20     6    34 1   
    21     7     9 ar  
    22     7    14 ar  
    23     7    17 1   
    24     8    10 1   
    25     8    23 1   
    26     8    35 1   
    27     9    11 ar  
    28     9    16 1   
    29    10    24 1   
    30    10    36 1   
    31    10    37 1   
    32    11    13 ar  
    33    11    15 1   
    34    12    16 2   
    35    12    17 1   
    36    12    38 1   
    37    15    39 1   
    38    15    40 1   
    39    18    25 1   
    40    19    41 1   
    41    20    25 1   
    42    21    42 1   
    43    22    25 1   
    44    24    25 1   
@<TRIPOS>SUBSTRUCTURE
     1 WTA         1 TEMP              0 ****  ****    0 ROOT
