@<TRIPOS>MOLECULE
WTA
   42    44     1     0     0
SMALL
bcc


@<TRIPOS>ATOM
      1 C1         -15.2480     7.0200   -26.5350 c5         1 WTA       0.260800
      2 C1P        -12.9440     3.5960   -22.7360 c3         1 WTA       0.194400
      3 C2         -19.5420     7.2090   -26.9550 ca         1 WTA       0.692900
      4 C7         -15.0610     8.5270   -26.3650 c5         1 WTA       0.114100
      5 C2P        -14.0330     3.7890   -21.7050 c3         1 WTA      -0.096100
      6 C3         -14.0140     8.5750   -25.2550 c5         1 WTA       0.068100
      7 C4         -17.6590     6.6410   -25.9800 ca         1 WTA       0.438800
      8 C9         -13.1440     7.3590   -25.5960 c5         1 WTA       0.101100
      9 C5         -18.3160     5.9530   -24.9710 ca         1 WTA      -0.222200
     10 C10        -12.4490     6.7710   -24.3940 c3         1 WTA       0.202400
     11 C6         -19.7210     5.9390   -25.0430 ca         1 WTA       0.770200
     12 C8         -16.2530     5.7480   -24.5670 cc         1 WTA       0.435700
     13 N1         -20.3030     6.5860   -26.0590 nb         1 WTA      -0.839000
     14 N3         -18.2240     7.2890   -26.9980 nb         1 WTA      -0.739000
     15 N6         -20.4860     5.3230   -24.1390 nv         1 WTA      -0.959500
     16 N7         -17.4170     5.4020   -24.0970 nd         1 WTA      -0.573100
     17 N9         -16.3310     6.5040   -25.7040 na         1 WTA      -0.271000
     18 O1P         -9.8260     5.7980   -23.0740 o          1 WTA      -0.806500
     19 O2         -14.5550     9.0130   -27.5790 oh         1 WTA      -0.586800
     20 O2P        -10.3810     3.5660   -24.3420 o          1 WTA      -0.806500
     21 O3         -13.3480     9.8030   -25.2690 oh         1 WTA      -0.600800
     22 O3P        -11.8900     4.5150   -22.4810 os         1 WTA      -0.586200
     23 O4         -14.0550     6.4100   -26.1530 os         1 WTA      -0.367600
     24 O5         -11.7490     5.6100   -24.7740 os         1 WTA      -0.556200
     25 P          -10.8010     4.8320   -23.6670 p5         1 WTA       1.387800
     26 H1         -15.4960     6.7730   -27.5720 h2         1 WTA       0.113700
     27 H2         -13.3630     3.7440   -23.7380 h1         1 WTA       0.021200
     28 H3         -12.5680     2.5690   -22.6970 h1         1 WTA       0.021200
     29 H4         -20.0780     7.7130   -27.7520 h5         1 WTA       0.038100
     30 H5         -15.9940     9.0270   -26.0800 h1         1 WTA       0.067700
     31 H6         -14.8380     3.0740   -21.8810 hc         1 WTA       0.023367
     32 H7         -13.6600     3.6290   -20.6930 hc         1 WTA       0.023367
     33 H8         -14.4600     4.7920   -21.7590 hc         1 WTA       0.023367
     34 H9         -14.5170     8.4000   -24.2920 h1         1 WTA       0.049700
     35 H10        -12.4020     7.6350   -26.3550 h1         1 WTA       0.086700
     36 H11        -11.7740     7.5350   -23.9890 h1         1 WTA       0.020200
     37 H12        -13.1920     6.5550   -23.6160 h1         1 WTA       0.020200
     38 H13        -15.3070     5.4720   -24.1290 h5         1 WTA       0.093800
     39 H14        -21.4800     5.2640   -24.2810 hn         1 WTA       0.444800
     40 H15        -20.0770     4.7470   -23.4240 hn         1 WTA       0.444800
     41 H17        -14.1830     9.8890   -27.4260 ho         1 WTA       0.426000
     42 H18        -12.8530     9.9080   -24.4510 ho         1 WTA       0.425000
@<TRIPOS>BOND
     1     1     4 1   
     2     1    17 1   
     3     1    23 1   
     4     1    26 1   
     5     2     5 1   
     6     2    22 1   
     7     2    27 1   
     8     2    28 1   
     9     3    13 ar  
    10     3    14 ar  
    11     3    29 1   
    12     4     6 1   
    13     4    19 1   
    14     4    30 1   
    15     5    31 1   
    16     5    32 1   
    17     5    33 1   
    18     6     8 1   
    19     6    21 1   
    20     6    34 1   
    21     7     9 ar  
    22     7    14 ar  
    23     7    17 1   
    24     8    10 1   
    25     8    23 1   
    26     8    35 1   
    27     9    11 ar  
    28     9    16 1   
    29    10    24 1   
    30    10    36 1   
    31    10    37 1   
    32    11    13 ar  
    33    11    15 1   
    34    12    16 2   
    35    12    17 1   
    36    12    38 1   
    37    15    39 1   
    38    15    40 1   
    39    18    25 1   
    40    19    41 1   
    41    20    25 1   
    42    21    42 1   
    43    22    25 1   
    44    24    25 1   
@<TRIPOS>SUBSTRUCTURE
     1 WTA         1 TEMP              0 ****  ****    0 ROOT
