@<TRIPOS>MOLECULE
WTC
   40    43     1     0     0
SMALL
bcc


@<TRIPOS>ATOM
      1 C1          -1.3370     2.1520     0.0220 cc         1 WTC      -0.398900
      2 C2          -0.8290     0.8580    -0.0010 cd         1 WTC       0.186100
      3 N3          -1.8820     0.0280    -0.0010 na         1 WTC       0.122400
      4 N4          -3.0390     0.7070     0.0260 nd         1 WTC      -0.513800
      5 C5          -2.7340     1.9830     0.0400 cc         1 WTC       0.381200
      6 C6          -0.4230     3.2510     0.0220 c          1 WTC       0.763100
      7 N7           0.8950     2.7930    -0.0010 ns         1 WTC      -0.504400
      8 C8           1.2940     1.4900    -0.0200 cc         1 WTC       0.519900
      9 N9           0.4720     0.4930    -0.0210 nd         1 WTC      -0.618100
     10 C10         -1.8680    -1.4230    -0.0060 c5         1 WTC       0.064000
     11 C11         -2.5790    -2.0050    -1.2490 c5         1 WTC      -0.086900
     12 C12         -3.5380    -3.0690    -0.7110 c5         1 WTC      -0.079400
     13 C13         -3.9290    -2.5360     0.6650 c5         1 WTC      -0.079400
     14 C14         -2.6010    -2.0220     1.2130 c5         1 WTC      -0.086900
     15 O15         -0.6760     4.4430     0.0390 o          1 WTC      -0.610500
     16 C16          2.7800     1.2720    -0.0430 c3         1 WTC      -0.072400
     17 C17          3.1720    -0.1750    -0.0050 ca         1 WTC      -0.072300
     18 C18          3.3700    -0.8190     1.2120 ca         1 WTC      -0.108500
     19 C19          3.7300    -2.1590     1.2520 ca         1 WTC      -0.128000
     20 C20          3.8950    -2.8710     0.0700 ca         1 WTC      -0.121000
     21 C21          3.7000    -2.2340    -1.1480 ca         1 WTC      -0.128000
     22 C22          3.3400    -0.8940    -1.1830 ca         1 WTC      -0.108500
     23 H5          -3.5080     2.7350     0.0610 h4         1 WTC       0.051100
     24 HN7          1.6140     3.5060    -0.0010 hn         1 WTC       0.326500
     25 H10         -0.8130    -1.6950     0.0090 h1         1 WTC       0.087700
     26 H11         -3.1450    -1.2190    -1.7500 hc         1 WTC       0.056950
     27 H11A        -1.8650    -2.4010    -1.9720 hc         1 WTC       0.056950
     28 H12         -4.3910    -3.2290    -1.3730 hc         1 WTC       0.048700
     29 H12A        -3.0250    -4.0290    -0.6040 hc         1 WTC       0.048700
     30 H13         -4.6410    -1.7140     0.5600 hc         1 WTC       0.048700
     31 H13A        -4.3870    -3.2920     1.3050 hc         1 WTC       0.048700
     32 H14         -2.0130    -2.8620     1.5880 hc         1 WTC       0.056950
     33 H14A        -2.7020    -1.3070     2.0290 hc         1 WTC       0.056950
     34 H16          3.1780     1.7550    -0.9410 hc         1 WTC       0.069200
     35 H16A         3.2160     1.8090     0.8050 hc         1 WTC       0.069200
     36 H18          3.2450    -0.2680     2.1360 ha         1 WTC       0.129000
     37 H19          3.8850    -2.6470     2.2050 ha         1 WTC       0.132000
     38 H20          4.1800    -3.9150     0.0990 ha         1 WTC       0.132000
     39 H21          3.8330    -2.7800    -2.0740 ha         1 WTC       0.132000
     40 H22          3.1920    -0.4020    -2.1370 ha         1 WTC       0.129000
@<TRIPOS>BOND
     1     1     2 2   
     2     1     5 1   
     3     1     6 1   
     4     2     3 1   
     5     2     9 1   
     6     3     4 1   
     7     3    10 1   
     8     4     5 2   
     9     5    23 1   
    10     6     7 1   
    11     6    15 2   
    12     7     8 1   
    13     7    24 1   
    14     8     9 2   
    15     8    16 1   
    16    10    11 1   
    17    10    14 1   
    18    10    25 1   
    19    11    12 1   
    20    11    26 1   
    21    11    27 1   
    22    12    13 1   
    23    12    28 1   
    24    12    29 1   
    25    13    14 1   
    26    13    30 1   
    27    13    31 1   
    28    14    32 1   
    29    14    33 1   
    30    16    17 1   
    31    16    34 1   
    32    16    35 1   
    33    17    18 ar  
    34    17    22 ar  
    35    18    19 ar  
    36    18    36 1   
    37    19    20 ar  
    38    19    37 1   
    39    20    21 ar  
    40    20    38 1   
    41    21    22 ar  
    42    21    39 1   
    43    22    40 1   
@<TRIPOS>SUBSTRUCTURE
     1 WTC         1 TEMP              0 ****  ****    0 ROOT
