@<TRIPOS>MOLECULE
WTC
   40    43     1     0     0
SMALL
No Charge or Current Charge


@<TRIPOS>ATOM
      1 C1          -0.9100     1.2580     1.0060 cc         1 WTC      -0.333600
      2 C2          -1.0050     0.2640     0.1040 cd         1 WTC       0.135400
      3 N3          -2.3440    -0.1400     0.1150 na         1 WTC       0.143800
      4 N4          -3.0920     0.6090     1.0340 nd         1 WTC      -0.513800
      5 C5          -2.1890     1.4340     1.5430 cc         1 WTC       0.315900
      6 C6           0.3090     1.9650     1.3120 c          1 WTC       0.620600
      7 N7           1.3340     1.4900     0.5670 ns         1 WTC      -0.437400
      8 C8           1.2230     0.4700    -0.3540 cc         1 WTC       0.519900
      9 N9           0.0880    -0.1820    -0.6340 nd         1 WTC      -0.618100
     10 C10         -2.9660    -1.2020    -0.6890 c5         1 WTC       0.093300
     11 C11         -4.1910    -0.7700    -1.5390 c5         1 WTC      -0.086900
     12 C12         -4.7070    -2.1310    -2.0900 c5         1 WTC      -0.079400
     13 C13         -4.3160    -3.1800    -0.9980 c5         1 WTC      -0.079400
     14 C14         -3.6250    -2.3500     0.1200 c5         1 WTC      -0.086900
     15 O15          0.4270     2.8690     2.1230 o          1 WTC      -0.535000
     16 C16          2.5150     0.1330    -1.0520 c3         1 WTC      -0.072400
     17 C17          3.6200    -0.3090    -0.0980 ca         1 WTC      -0.072300
     18 C18          4.7020     0.5490     0.1930 ca         1 WTC      -0.090500
     19 C19          5.7070     0.1420     1.0890 ca         1 WTC      -0.110000
     20 C20          5.6380    -1.1250     1.6970 ca         1 WTC      -0.103000
     21 C21          4.5650    -1.9860     1.4060 ca         1 WTC      -0.110000
     22 C22          3.5590    -1.5790     0.5110 ca         1 WTC      -0.090500
     23 H5          -2.4940     2.1460     2.2980 h4         1 WTC       0.051100
     24 HN7          2.2330     1.9190     0.7200 hn         1 WTC       0.326500
     25 H10         -2.1920    -1.6170    -1.3490 h1         1 WTC       0.087700
     26 H11         -4.9560    -0.2740    -0.9290 hc         1 WTC       0.056950
     27 H11A        -3.9170    -0.0750    -2.3410 hc         1 WTC       0.056950
     28 H12         -5.7880    -2.1080    -2.2720 hc         1 WTC       0.048700
     29 H12A        -4.2300    -2.3740    -3.0480 hc         1 WTC       0.048700
     30 H13         -5.1880    -3.7250    -0.6170 hc         1 WTC       0.048700
     31 H13A        -3.6300    -3.9300    -1.4110 hc         1 WTC       0.048700
     32 H14         -2.8890    -2.9390     0.6800 hc         1 WTC       0.056950
     33 H14A        -4.3550    -1.9700     0.8450 hc         1 WTC       0.056950
     34 H16          2.3330    -0.6600    -1.7890 hc         1 WTC       0.069200
     35 H16A         2.8370     1.0020    -1.6380 hc         1 WTC       0.069200
     36 H18          4.7670     1.5310    -0.2720 ha         1 WTC       0.111000
     37 H19          6.5380     0.8090     1.3110 ha         1 WTC       0.114000
     38 H20          6.4150    -1.4380     2.3920 ha         1 WTC       0.114000
     39 H21          4.5110    -2.9670     1.8760 ha         1 WTC       0.114000
     40 H22          2.7300    -2.2520     0.2930 ha         1 WTC       0.111000
@<TRIPOS>BOND
     1     1     2 2   
     2     1     5 1   
     3     1     6 1   
     4     2     3 1   
     5     2     9 1   
     6     3     4 1   
     7     3    10 1   
     8     4     5 2   
     9     5    23 1   
    10     6     7 1   
    11     6    15 2   
    12     7     8 1   
    13     7    24 1   
    14     8     9 2   
    15     8    16 1   
    16    10    11 1   
    17    10    14 1   
    18    10    25 1   
    19    11    12 1   
    20    11    26 1   
    21    11    27 1   
    22    12    13 1   
    23    12    28 1   
    24    12    29 1   
    25    13    14 1   
    26    13    30 1   
    27    13    31 1   
    28    14    32 1   
    29    14    33 1   
    30    16    17 1   
    31    16    34 1   
    32    16    35 1   
    33    17    18 ar  
    34    17    22 ar  
    35    18    19 ar  
    36    18    36 1   
    37    19    20 ar  
    38    19    37 1   
    39    20    21 ar  
    40    20    38 1   
    41    21    22 ar  
    42    21    39 1   
    43    22    40 1   
@<TRIPOS>SUBSTRUCTURE
     1 WTC         1 TEMP              0 ****  ****    0 ROOT
