@<TRIPOS>MOLECULE
WTD
   47    49     1     0     0
SMALL
No Charge or Current Charge


@<TRIPOS>ATOM
      1 C01        -34.6100     3.0830    12.5860 c3         1 WTD       0.148900
      2 C03        -32.4580     4.1730    12.0420 ca         1 WTD       0.034100
      3 C04        -31.7180     2.9900    12.2660 ca         1 WTD      -0.156000
      4 C05        -30.3140     2.9960    12.1400 ca         1 WTD      -0.089300
      5 C06        -29.5130     1.7210    12.3860 c3         1 WTD      -0.059100
      6 C07        -28.8580     1.6680    13.7830 c3         1 WTD       0.107000
      7 C09        -30.6680     2.5840    15.3080 c          1 WTD       0.627300
      8 C11        -30.1630     4.0060    15.3140 cc         1 WTD      -0.011200
      9 C12        -28.8600     4.3470    15.6520 cd         1 WTD      -0.019100
     10 C14        -28.3820     5.7450    15.6310 c          1 WTD       0.680700
     11 C17        -30.5440     6.4190    14.9430 cc         1 WTD       0.741800
     12 C19        -31.4630     7.4720    14.5210 ca         1 WTD      -0.251900
     13 C20        -31.0370     8.4860    13.6330 ca         1 WTD       0.244500
     14 C22        -31.9020     9.5240    13.2510 ca         1 WTD      -0.176000
     15 C23        -33.2090     9.5800    13.7550 ca         1 WTD      -0.035000
     16 C24        -33.6410     8.5900    14.6480 ca         1 WTD      -0.176000
     17 C25        -32.7780     7.5520    15.0310 ca         1 WTD       0.244500
     18 C27        -29.6520     4.1880    11.7880 ca         1 WTD      -0.097000
     19 C28        -30.3850     5.3630    11.5500 ca         1 WTD      -0.120000
     20 C29        -31.7830     5.3530    11.6730 ca         1 WTD       0.110100
     21 F21        -29.7990     8.4650    13.0880 f          1 WTD      -0.155500
     22 F26        -33.2390     6.6450    15.9200 f          1 WTD      -0.155500
     23 N08        -29.8480     1.5620    14.8700 ns         1 WTD      -0.471900
     24 N16        -29.2920     6.6860    15.2190 nd         1 WTD      -0.692100
     25 N18        -31.0190     5.1370    15.2040 na         1 WTD      -0.695200
     26 O02        -33.8350     4.2250    12.1740 os         1 WTD      -0.368100
     27 O10        -31.8200     2.3100    15.6190 o          1 WTD      -0.600100
     28 O13        -27.9290     3.4600    16.1230 oh         1 WTD      -0.514100
     29 O15        -27.2470     6.0790    15.9410 o          1 WTD      -0.569100
     30 O30        -32.4990     6.4880    11.4310 oh         1 WTD      -0.533100
     31 H1         -35.6740     3.3440    12.6370 h1         1 WTD       0.047367
     32 H2         -34.4970     2.2570    11.8730 h1         1 WTD       0.047367
     33 H3         -34.2970     2.7370    13.5800 h1         1 WTD       0.047367
     34 H4         -32.2150     2.0650    12.5450 ha         1 WTD       0.122000
     35 H5         -30.1450     0.8340    12.2530 hc         1 WTD       0.057200
     36 H6         -28.7210     1.6380    11.6320 hc         1 WTD       0.057200
     37 H7         -28.2030     0.7880    13.8350 h1         1 WTD       0.065700
     38 H8         -28.2250     2.5520    13.8990 h1         1 WTD       0.065700
     39 H9         -31.5550    10.2830    12.5550 ha         1 WTD       0.144000
     40 H10        -33.8790    10.3840    13.4580 ha         1 WTD       0.127000
     41 H11        -34.6490     8.6280    15.0540 ha         1 WTD       0.144000
     42 H12        -28.5680     4.2030    11.6910 ha         1 WTD       0.122000
     43 H13        -29.8710     6.2780    11.2680 ha         1 WTD       0.139000
     44 H14        -30.2380     0.6410    15.0220 hn         1 WTD       0.312500
     45 H15        -32.0210     5.0000    15.1330 hn         1 WTD       0.527000
     46 H16        -27.1140     3.9770    16.3310 ho         1 WTD       0.498000
     47 H17        -33.4440     6.2450    11.5450 ho         1 WTD       0.481000
@<TRIPOS>BOND
     1     1    26 1   
     2     1    31 1   
     3     1    32 1   
     4     1    33 1   
     5     2     3 ar  
     6     2    20 ar  
     7     2    26 1   
     8     3     4 ar  
     9     3    34 1   
    10     4     5 1   
    11     4    18 ar  
    12     5     6 1   
    13     5    35 1   
    14     5    36 1   
    15     6    23 1   
    16     6    37 1   
    17     6    38 1   
    18     7     8 1   
    19     7    23 1   
    20     7    27 2   
    21     8     9 2   
    22     8    25 1   
    23     9    10 1   
    24     9    28 1   
    25    10    24 1   
    26    10    29 2   
    27    11    12 1   
    28    11    24 2   
    29    11    25 1   
    30    12    13 ar  
    31    12    17 ar  
    32    13    14 ar  
    33    13    21 1   
    34    14    15 ar  
    35    14    39 1   
    36    15    16 ar  
    37    15    40 1   
    38    16    17 ar  
    39    16    41 1   
    40    17    22 1   
    41    18    19 ar  
    42    18    42 1   
    43    19    20 ar  
    44    19    43 1   
    45    20    30 1   
    46    23    44 1   
    47    25    45 1   
    48    28    46 1   
    49    30    47 1   
@<TRIPOS>SUBSTRUCTURE
     1 WTD         1 TEMP              0 ****  ****    0 ROOT
