@<TRIPOS>MOLECULE
WTD
   47    49     1     0     0
SMALL
bcc


@<TRIPOS>ATOM
      1 C01        -34.4850     3.2610    12.8060 c3         1 WTD       0.125700
      2 C03        -32.4620     4.2130    12.0070 ca         1 WTD       0.034100
      3 C04        -31.7140     3.0670    12.2420 ca         1 WTD      -0.174000
      4 C05        -30.3300     3.0600    12.0510 ca         1 WTD      -0.089300
      5 C06        -29.5240     1.8190    12.3150 c3         1 WTD      -0.059100
      6 C07        -28.9560     1.7620    13.7350 c3         1 WTD       0.107000
      7 C09        -30.6590     2.6520    15.3380 c          1 WTD       0.694300
      8 C11        -30.0420     4.0180    15.3290 cc         1 WTD      -0.011200
      9 C12        -28.8390     4.3540    15.8420 cd         1 WTD      -0.019100
     10 C14        -28.4480     5.7630    15.9010 c          1 WTD       0.680700
     11 C17        -30.4970     6.3140    15.0020 cc         1 WTD       0.741800
     12 C19        -31.4510     7.3370    14.5270 ca         1 WTD      -0.251900
     13 C20        -31.0660     8.3070    13.6080 ca         1 WTD       0.209400
     14 C22        -31.9130     9.3070    13.1810 ca         1 WTD      -0.194000
     15 C23        -33.2020     9.3470    13.6910 ca         1 WTD      -0.053000
     16 C24        -33.6380     8.4020    14.6080 ca         1 WTD      -0.194000
     17 C25        -32.7540     7.4200    15.0050 ca         1 WTD       0.209400
     18 C27        -29.7130     4.2320    11.6320 ca         1 WTD      -0.115000
     19 C28        -30.4540     5.3830    11.3910 ca         1 WTD      -0.138000
     20 C29        -31.8270     5.3860    11.5660 ca         1 WTD       0.110100
     21 F21        -29.8330     8.2520    13.1040 f          1 WTD      -0.120400
     22 F26        -33.1570     6.5180    15.9060 f          1 WTD      -0.120400
     23 N08        -29.9900     1.6590    14.7440 ns         1 WTD      -0.538900
     24 N16        -29.3460     6.6930    15.4710 nd         1 WTD      -0.692100
     25 N18        -30.8700     5.0340    14.9230 na         1 WTD      -0.640000
     26 O02        -33.7990     4.3180    12.1660 os         1 WTD      -0.344900
     27 O10        -31.7280     2.5080    15.9130 o          1 WTD      -0.600100
     28 O13        -27.9800     3.4490    16.3100 oh         1 WTD      -0.475100
     29 O15        -27.3400     6.0570    16.3390 o          1 WTD      -0.569100
     30 O30        -32.5260     6.5090    11.3070 oh         1 WTD      -0.494100
     31 H1         -35.5150     3.5860    12.9260 h1         1 WTD       0.047367
     32 H2         -34.4720     2.3460    12.2080 h1         1 WTD       0.047367
     33 H3         -34.0630     3.0460    13.7920 h1         1 WTD       0.047367
     34 H4         -32.2040     2.1550    12.5580 ha         1 WTD       0.140000
     35 H5         -30.1280     0.9270    12.1350 hc         1 WTD       0.057200
     36 H6         -28.6790     1.7720    11.6230 hc         1 WTD       0.057200
     37 H7         -28.3110     0.8890    13.8360 h1         1 WTD       0.065700
     38 H8         -28.3310     2.6340    13.9180 h1         1 WTD       0.065700
     39 H9         -31.5710    10.0360    12.4590 ha         1 WTD       0.162000
     40 H10        -33.8780    10.1260    13.3680 ha         1 WTD       0.145000
     41 H11        -34.6380     8.4310    15.0160 ha         1 WTD       0.162000
     42 H12        -28.6410     4.2520    11.4800 ha         1 WTD       0.140000
     43 H13        -29.9630     6.2870    11.0520 ha         1 WTD       0.157000
     44 H14        -30.4490     0.7590    14.8020 hn         1 WTD       0.312500
     45 H15        -31.7580     4.7860    14.5060 hn         1 WTD       0.471800
     46 H16        -27.1870     3.9260    16.6030 ho         1 WTD       0.459000
     47 H17        -33.4500     6.3930    11.5600 ho         1 WTD       0.442000
@<TRIPOS>BOND
     1     1    26 1   
     2     1    31 1   
     3     1    32 1   
     4     1    33 1   
     5     2     3 ar  
     6     2    20 ar  
     7     2    26 1   
     8     3     4 ar  
     9     3    34 1   
    10     4     5 1   
    11     4    18 ar  
    12     5     6 1   
    13     5    35 1   
    14     5    36 1   
    15     6    23 1   
    16     6    37 1   
    17     6    38 1   
    18     7     8 1   
    19     7    23 1   
    20     7    27 2   
    21     8     9 2   
    22     8    25 1   
    23     9    10 1   
    24     9    28 1   
    25    10    24 1   
    26    10    29 2   
    27    11    12 1   
    28    11    24 2   
    29    11    25 1   
    30    12    13 ar  
    31    12    17 ar  
    32    13    14 ar  
    33    13    21 1   
    34    14    15 ar  
    35    14    39 1   
    36    15    16 ar  
    37    15    40 1   
    38    16    17 ar  
    39    16    41 1   
    40    17    22 1   
    41    18    19 ar  
    42    18    42 1   
    43    19    20 ar  
    44    19    43 1   
    45    20    30 1   
    46    23    44 1   
    47    25    45 1   
    48    28    46 1   
    49    30    47 1   
@<TRIPOS>SUBSTRUCTURE
     1 WTD         1 TEMP              0 ****  ****    0 ROOT
