@<TRIPOS>MOLECULE
WTE
   87    90     1     0     0
SMALL
No Charge or Current Charge


@<TRIPOS>ATOM
      1 C01         -0.3630    -3.5990     3.5680 c3         1 WTE      -0.087600
      2 C02          0.2130    -3.3510     2.1560 c3         1 WTE      -0.061700
      3 C03          1.2840    -4.4120     1.8100 c3         1 WTE      -0.087600
      4 C04          0.7400    -1.8930     2.0200 c3         1 WTE      -0.082400
      5 C05          1.2340    -1.4530     0.6090 c3         1 WTE       0.038700
      6 N06          1.8330    -0.1050     0.6940 ns         1 WTE      -0.505900
      7 C07          3.0880     0.1910     1.1880 c          1 WTE       0.565100
      8 O08          3.8460    -0.6910     1.5690 o          1 WTE      -0.567100
      9 C09          3.4690     1.7050     1.2490 c3         1 WTE       0.069700
     10 C10          4.0640     2.1050     2.6270 c3         1 WTE      -0.035100
     11 C11          4.3780     3.5950     2.7370 ca         1 WTE      -0.106300
     12 C12          5.4190     4.1580     1.9710 ca         1 WTE      -0.081000
     13 C13          5.7020     5.5320     2.0620 ca         1 WTE      -0.152000
     14 C14          4.9460     6.3460     2.9190 ca         1 WTE       0.169000
     15 F15          5.2180     7.6660     3.0060 f          1 WTE      -0.180000
     16 C16          3.9100     5.7950     3.6880 ca         1 WTE      -0.152000
     17 C17          3.6260     4.4200     3.5990 ca         1 WTE      -0.081000
     18 N18          2.3560     2.5950     0.8220 ns         1 WTE      -0.508900
     19 C19          1.2420     2.8940     1.5580 c          1 WTE       0.642100
     20 O20          0.9290     2.3700     2.6150 o          1 WTE      -0.517000
     21 O21          0.4960     3.7930     0.8660 os         1 WTE      -0.466100
     22 C22         -0.7500     4.2070     1.4500 c3         1 WTE       0.231900
     23 C23         -1.4070     5.2130     0.5140 ca         1 WTE      -0.100300
     24 C24         -1.1760     6.5930     0.6790 ca         1 WTE      -0.086000
     25 C25         -1.7850     7.5210    -0.1850 ca         1 WTE      -0.115000
     26 C26         -2.6260     7.0750    -1.2190 ca         1 WTE      -0.097000
     27 C27         -2.8570     5.6990    -1.3890 ca         1 WTE      -0.115000
     28 C28         -2.2490     4.7710    -0.5260 ca         1 WTE      -0.086000
     29 C29          0.0900    -1.4420    -0.4500 c          1 WTE       0.579100
     30 O30         -0.4920    -0.4190    -0.7890 o          1 WTE      -0.571100
     31 N31         -0.2090    -2.6680    -1.0020 ns         1 WTE      -0.501900
     32 C32         -1.2890    -2.9190    -1.9510 c3         1 WTE       0.134900
     33 C33         -0.8130    -2.6880    -3.4030 c3         1 WTE      -0.098400
     34 C34         -1.9200    -2.8550    -4.4670 c5         1 WTE       0.167300
     35 C35         -1.4840    -2.5750    -5.9200 c5         1 WTE      -0.103400
     36 C36         -2.8720    -2.4370    -6.6060 c5         1 WTE      -0.115400
     37 C37         -3.7810    -1.8910    -5.4600 c5         1 WTE       0.158600
     38 O38         -2.9460    -1.8690    -4.2810 os         1 WTE      -0.446000
     39 C39         -1.7880    -4.3290    -1.7000 c2         1 WTE      -0.154200
     40 C40         -2.5950    -4.7540    -0.6950 ce         1 WTE      -0.205400
     41 C41         -3.0700    -6.1730    -0.4230 c5         1 WTE      -0.082200
     42 C42         -3.4550    -6.0760     1.0740 c5         1 WTE       0.159600
     43 O43         -3.8650    -4.7110     1.2740 os         1 WTE      -0.426100
     44 C44         -3.2180    -3.9130     0.3810 c          1 WTE       0.657300
     45 O45         -3.1860    -2.6960     0.4660 o          1 WTE      -0.467000
     46 H051         2.0080    -2.1460     0.2540 h1         1 WTE       0.071700
     47 H091         4.2620     1.8330     0.5000 h1         1 WTE       0.060700
     48 H321        -2.1050    -2.2080    -1.7550 h1         1 WTE       0.116700
     49 H341        -2.3690    -3.8550    -4.3790 h1         1 WTE       0.034700
     50 H011        -1.1650    -2.8840     3.7910 hc         1 WTE       0.035700
     51 H012        -0.7840    -4.6090     3.6430 hc         1 WTE       0.035700
     52 H013         0.4150    -3.4930     4.3330 hc         1 WTE       0.035700
     53 H021        -0.6220    -3.4830     1.4610 hc         1 WTE       0.037700
     54 H031         1.6190    -4.3220     0.7710 hc         1 WTE       0.035700
     55 H032         2.1590    -4.3100     2.4630 hc         1 WTE       0.035700
     56 H033         0.8790    -5.4240     1.9380 hc         1 WTE       0.035700
     57 H041        -0.0520    -1.2000     2.3330 hc         1 WTE       0.069200
     58 H042         1.5580    -1.7590     2.7380 hc         1 WTE       0.069200
     59 H061         1.2730     0.6850     0.3910 hn         1 WTE       0.315500
     60 H101         4.9800     1.5250     2.7970 hc         1 WTE       0.087200
     61 H102         3.3740     1.7980     3.4220 hc         1 WTE       0.087200
     62 H121         6.0070     3.5310     1.3040 ha         1 WTE       0.119500
     63 H131         6.5030     5.9660     1.4700 ha         1 WTE       0.133000
     64 H161         3.3280     6.4320     4.3500 ha         1 WTE       0.133000
     65 H171         2.8190     4.0000     4.1950 ha         1 WTE       0.119500
     66 H181         2.4530     3.1150    -0.0410 hn         1 WTE       0.328500
     67 H221        -1.4190     3.3470     1.5910 h1         1 WTE       0.058700
     68 H222        -0.5850     4.6700     2.4320 h1         1 WTE       0.058700
     69 H241        -0.5250     6.9470     1.4750 ha         1 WTE       0.116000
     70 H251        -1.6030     8.5860    -0.0530 ha         1 WTE       0.115000
     71 H261        -3.0960     7.7930    -1.8870 ha         1 WTE       0.114000
     72 H271        -3.5060     5.3520    -2.1900 ha         1 WTE       0.115000
     73 H281        -2.4310     3.7070    -0.6660 ha         1 WTE       0.116000
     74 H311         0.3240    -3.4620    -0.6700 hn         1 WTE       0.315500
     75 H331         0.0100    -3.3790    -3.6220 hc         1 WTE       0.062200
     76 H332        -0.3930    -1.6780    -3.4780 hc         1 WTE       0.062200
     77 H351        -0.9030    -1.6480    -5.9940 hc         1 WTE       0.051700
     78 H352        -0.8790    -3.3840    -6.3450 hc         1 WTE       0.051700
     79 H361        -2.8430    -1.7650    -7.4710 hc         1 WTE       0.049200
     80 H362        -3.2400    -3.4070    -6.9610 hc         1 WTE       0.049200
     81 H371        -4.1490    -0.8770    -5.6600 h1         1 WTE       0.046200
     82 H372        -4.6410    -2.5510    -5.2810 h1         1 WTE       0.046200
     83 H391        -1.4100    -5.0620    -2.4140 ha         1 WTE       0.175000
     84 H411        -3.9330    -6.4320    -1.0470 hc         1 WTE       0.068700
     85 H412        -2.2890    -6.9230    -0.5990 hc         1 WTE       0.068700
     86 H421        -4.2600    -6.7650     1.3620 h1         1 WTE       0.065200
     87 H422        -2.5820    -6.2710     1.7130 h1         1 WTE       0.065200
@<TRIPOS>BOND
     1     1     2 1   
     2     1    50 1   
     3     1    51 1   
     4     1    52 1   
     5     2     3 1   
     6     2     4 1   
     7     2    53 1   
     8     3    54 1   
     9     3    55 1   
    10     3    56 1   
    11     4     5 1   
    12     4    57 1   
    13     4    58 1   
    14     5     6 1   
    15     5    29 1   
    16     5    46 1   
    17     6     7 1   
    18     6    59 1   
    19     7     8 2   
    20     7     9 1   
    21     9    10 1   
    22     9    18 1   
    23     9    47 1   
    24    10    11 1   
    25    10    60 1   
    26    10    61 1   
    27    11    12 ar  
    28    11    17 ar  
    29    12    13 ar  
    30    12    62 1   
    31    13    14 ar  
    32    13    63 1   
    33    14    15 1   
    34    14    16 ar  
    35    16    17 ar  
    36    16    64 1   
    37    17    65 1   
    38    18    19 1   
    39    18    66 1   
    40    19    20 2   
    41    19    21 1   
    42    21    22 1   
    43    22    23 1   
    44    22    67 1   
    45    22    68 1   
    46    23    24 ar  
    47    23    28 ar  
    48    24    25 ar  
    49    24    69 1   
    50    25    26 ar  
    51    25    70 1   
    52    26    27 ar  
    53    26    71 1   
    54    27    28 ar  
    55    27    72 1   
    56    28    73 1   
    57    29    30 2   
    58    29    31 1   
    59    31    32 1   
    60    31    74 1   
    61    32    33 1   
    62    32    39 1   
    63    32    48 1   
    64    33    34 1   
    65    33    75 1   
    66    33    76 1   
    67    34    35 1   
    68    34    38 1   
    69    34    49 1   
    70    35    36 1   
    71    35    77 1   
    72    35    78 1   
    73    36    37 1   
    74    36    79 1   
    75    36    80 1   
    76    37    38 1   
    77    37    81 1   
    78    37    82 1   
    79    39    40 2   
    80    39    83 1   
    81    40    41 1   
    82    40    44 1   
    83    41    42 1   
    84    41    84 1   
    85    41    85 1   
    86    42    43 1   
    87    42    86 1   
    88    42    87 1   
    89    43    44 1   
    90    44    45 2   
@<TRIPOS>SUBSTRUCTURE
     1 WTE         1 TEMP              0 ****  ****    0 ROOT
