@<TRIPOS>MOLECULE
WTE
   87    90     1     0     0
SMALL
abcg2


@<TRIPOS>ATOM
      1 C01         -3.7200    -2.2180     3.0770 c3         1 WTE      -0.087600
      2 C02         -2.2130    -2.1860     2.8580 c3         1 WTE      -0.061700
      3 C03         -1.4370    -2.5060     4.1320 c3         1 WTE      -0.087600
      4 C04         -1.7450    -0.8470     2.2520 c3         1 WTE      -0.082400
      5 C05         -0.6320    -1.0640     1.2220 c3         1 WTE       0.038700
      6 N06          0.1200     0.1520     0.9610 ns         1 WTE      -0.505900
      7 C07          1.1540     0.5340     1.7340 c          1 WTE       0.565100
      8 O08          1.4050     0.0110     2.8060 o          1 WTE      -0.567100
      9 C09          1.9220     1.7570     1.1860 c3         1 WTE       0.069700
     10 C10          3.3660     1.8130     1.7330 c3         1 WTE      -0.035100
     11 C11          4.4030     1.8460     0.6410 ca         1 WTE      -0.106300
     12 C12          5.3700     0.8540     0.5380 ca         1 WTE      -0.081000
     13 C13          6.3610     0.8990    -0.4390 ca         1 WTE      -0.152000
     14 C14          6.4250     2.0150    -1.2490 ca         1 WTE       0.169000
     15 F15          7.3720     2.0730    -2.2040 f          1 WTE      -0.180000
     16 C16          5.4610     3.0070    -1.2080 ca         1 WTE      -0.152000
     17 C17          4.4820     2.9360    -0.2280 ca         1 WTE      -0.081000
     18 N18          1.1320     2.9470     1.4230 ns         1 WTE      -0.508900
     19 C19          1.0380     3.6120     2.5970 c          1 WTE       0.642100
     20 O20          1.5400     3.2820     3.6480 o          1 WTE      -0.517000
     21 O21          0.2930     4.7120     2.4320 os         1 WTE      -0.466100
     22 C22          0.2390     5.6530     3.5140 c3         1 WTE       0.231900
     23 C23         -0.9260     6.5600     3.2620 ca         1 WTE      -0.100300
     24 C24         -0.7880     7.6760     2.4410 ca         1 WTE      -0.086000
     25 C25         -1.8410     8.5650     2.2750 ca         1 WTE      -0.115000
     26 C26         -3.0270     8.3760     2.9720 ca         1 WTE      -0.097000
     27 C27         -3.1880     7.2420     3.7590 ca         1 WTE      -0.115000
     28 C28         -2.1400     6.3440     3.9100 ca         1 WTE      -0.086000
     29 C29         -1.2250    -1.5330    -0.1130 c          1 WTE       0.579100
     30 O30         -2.2920    -1.1140    -0.5290 o          1 WTE      -0.571100
     31 N31         -0.4470    -2.3830    -0.8000 ns         1 WTE      -0.501900
     32 C32         -0.8500    -2.9710    -2.0620 c3         1 WTE       0.134900
     33 C33         -0.7190    -1.9830    -3.2360 c3         1 WTE      -0.098400
     34 C34         -1.2020    -2.5730    -4.5610 c5         1 WTE       0.167300
     35 C35         -0.3900    -2.1300    -5.8020 c5         1 WTE      -0.103400
     36 C36         -1.4550    -1.7390    -6.8310 c5         1 WTE      -0.115400
     37 C37         -2.7990    -2.0620    -6.1680 c5         1 WTE       0.158600
     38 O38         -2.5480    -2.2060    -4.7880 os         1 WTE      -0.446000
     39 C39         -0.0010    -4.1910    -2.2870 c2         1 WTE      -0.154200
     40 C40         -0.3030    -5.4410    -1.9490 ce         1 WTE      -0.205400
     41 C41          0.6450    -6.5980    -1.9230 c5         1 WTE      -0.082200
     42 C42         -0.2730    -7.7790    -1.5600 c5         1 WTE       0.159600
     43 O43         -1.6100    -7.3010    -1.7500 os         1 WTE      -0.426100
     44 C44         -1.6620    -5.9680    -1.6600 c          1 WTE       0.657300
     45 O45         -2.7000    -5.3920    -1.4620 o          1 WTE      -0.467000
     46 H051         0.0480    -1.8290     1.6080 h1         1 WTE       0.071700
     47 H091         1.9880     1.6380     0.1030 h1         1 WTE       0.060700
     48 H321        -1.8990    -3.2620    -2.0060 h1         1 WTE       0.116700
     49 H341        -1.1370    -3.6710    -4.5100 h1         1 WTE       0.034700
     50 H011        -4.2310    -2.0190     2.1310 hc         1 WTE       0.035700
     51 H012        -4.0620    -3.1950     3.4200 hc         1 WTE       0.035700
     52 H013        -4.0430    -1.4230     3.7520 hc         1 WTE       0.035700
     53 H021        -1.9710    -2.9710     2.1300 hc         1 WTE       0.037700
     54 H031        -0.3620    -2.5450     3.9440 hc         1 WTE       0.035700
     55 H032        -1.6260    -1.7490     4.8960 hc         1 WTE       0.035700
     56 H033        -1.7360    -3.4730     4.5420 hc         1 WTE       0.035700
     57 H041        -2.5850    -0.3550     1.7600 hc         1 WTE       0.069200
     58 H042        -1.3610    -0.2030     3.0440 hc         1 WTE       0.069200
     59 H061        -0.0010     0.6130     0.0730 hn         1 WTE       0.315500
     60 H101         3.5490     0.9730     2.3990 hc         1 WTE       0.087200
     61 H102         3.4940     2.7140     2.3310 hc         1 WTE       0.087200
     62 H121         5.3330     0.0050     1.2110 ha         1 WTE       0.119500
     63 H131         7.1760     0.1860    -0.4320 ha         1 WTE       0.133000
     64 H161         5.5580     3.8800    -1.8410 ha         1 WTE       0.133000
     65 H171         3.7020     3.6890    -0.2210 ha         1 WTE       0.119500
     66 H181         0.4680     3.1970     0.7060 hn         1 WTE       0.328500
     67 H221         0.1220     5.1240     4.4610 h1         1 WTE       0.058700
     68 H222         1.1800     6.2080     3.5510 h1         1 WTE       0.058700
     69 H241         0.1620     7.8660     1.9540 ha         1 WTE       0.116000
     70 H251        -1.7060     9.4280     1.6340 ha         1 WTE       0.115000
     71 H261        -3.8680     9.0310     2.7810 ha         1 WTE       0.114000
     72 H271        -4.1330     7.0500     4.2510 ha         1 WTE       0.115000
     73 H281        -2.2830     5.4710     4.5360 ha         1 WTE       0.116000
     74 H311         0.4920    -2.5550    -0.4740 hn         1 WTE       0.315500
     75 H331         0.3300    -1.6850    -3.3150 hc         1 WTE       0.062200
     76 H332        -1.3120    -1.0980    -3.0030 hc         1 WTE       0.062200
     77 H351         0.2550    -1.2870    -5.5540 hc         1 WTE       0.051700
     78 H352         0.1980    -2.9790    -6.1450 hc         1 WTE       0.051700
     79 H361        -1.4050    -0.6760    -7.0750 hc         1 WTE       0.049200
     80 H362        -1.3380    -2.2400    -7.7920 hc         1 WTE       0.049200
     81 H371        -3.5130    -1.2480    -6.3030 h1         1 WTE       0.046200
     82 H372        -3.2360    -2.9770    -6.5870 h1         1 WTE       0.046200
     83 H391         0.9400    -4.0390    -2.8120 ha         1 WTE       0.175000
     84 H411         1.1250    -6.7720    -2.8880 hc         1 WTE       0.068700
     85 H412         1.4430    -6.4870    -1.1900 hc         1 WTE       0.068700
     86 H421        -0.1330    -8.6440    -2.2020 h1         1 WTE       0.065200
     87 H422        -0.1460    -8.0560    -0.5130 h1         1 WTE       0.065200
@<TRIPOS>BOND
     1     1     2 1   
     2     1    50 1   
     3     1    51 1   
     4     1    52 1   
     5     2     3 1   
     6     2     4 1   
     7     2    53 1   
     8     3    54 1   
     9     3    55 1   
    10     3    56 1   
    11     4     5 1   
    12     4    57 1   
    13     4    58 1   
    14     5     6 1   
    15     5    29 1   
    16     5    46 1   
    17     6     7 1   
    18     6    59 1   
    19     7     8 2   
    20     7     9 1   
    21     9    10 1   
    22     9    18 1   
    23     9    47 1   
    24    10    11 1   
    25    10    60 1   
    26    10    61 1   
    27    11    12 ar  
    28    11    17 ar  
    29    12    13 ar  
    30    12    62 1   
    31    13    14 ar  
    32    13    63 1   
    33    14    15 1   
    34    14    16 ar  
    35    16    17 ar  
    36    16    64 1   
    37    17    65 1   
    38    18    19 1   
    39    18    66 1   
    40    19    20 2   
    41    19    21 1   
    42    21    22 1   
    43    22    23 1   
    44    22    67 1   
    45    22    68 1   
    46    23    24 ar  
    47    23    28 ar  
    48    24    25 ar  
    49    24    69 1   
    50    25    26 ar  
    51    25    70 1   
    52    26    27 ar  
    53    26    71 1   
    54    27    28 ar  
    55    27    72 1   
    56    28    73 1   
    57    29    30 2   
    58    29    31 1   
    59    31    32 1   
    60    31    74 1   
    61    32    33 1   
    62    32    39 1   
    63    32    48 1   
    64    33    34 1   
    65    33    75 1   
    66    33    76 1   
    67    34    35 1   
    68    34    38 1   
    69    34    49 1   
    70    35    36 1   
    71    35    77 1   
    72    35    78 1   
    73    36    37 1   
    74    36    79 1   
    75    36    80 1   
    76    37    38 1   
    77    37    81 1   
    78    37    82 1   
    79    39    40 2   
    80    39    83 1   
    81    40    41 1   
    82    40    44 1   
    83    41    42 1   
    84    41    84 1   
    85    41    85 1   
    86    42    43 1   
    87    42    86 1   
    88    42    87 1   
    89    43    44 1   
    90    44    45 2   
@<TRIPOS>SUBSTRUCTURE
     1 WTE         1 TEMP              0 ****  ****    0 ROOT
