@<TRIPOS>MOLECULE
WTF
   52    55     1     0     0
SMALL
abcg2


@<TRIPOS>ATOM
      1 C01         -2.4830    -3.7110    -0.6080 c3         1 WTF      -0.073100
      2 C02         -2.9920    -2.3410    -1.0240 c3         1 WTF      -0.299400
      3 S03         -3.8030    -1.5360     0.3590 sy         1 WTF       1.040500
      4 O04         -5.0520    -2.2440     0.6290 o          1 WTF      -0.511000
      5 O05         -2.8290    -1.3970     1.4400 o          1 WTF      -0.511000
      6 C06         -4.1960     0.0800    -0.2680 ca         1 WTF      -0.235500
      7 C07         -3.5060     1.2170     0.1440 ca         1 WTF      -0.045600
      8 C08         -3.8300     2.4330    -0.4520 ca         1 WTF      -0.105000
      9 C09         -4.8040     2.5070    -1.4350 ca         1 WTF      -0.058000
     10 C10         -5.4920     1.3670    -1.8250 ca         1 WTF      -0.116000
     11 C11         -5.1910     0.1500    -1.2380 ca         1 WTF      -0.032000
     12 C12         -2.5510     1.2760     1.3110 c          1 WTF       0.625700
     13 O13         -3.0140     1.5030     2.4160 o          1 WTF      -0.562100
     14 N14         -1.2380     1.1940     1.0390 n          1 WTF      -0.396800
     15 C15         -0.2600     1.3210     2.1090 c6         1 WTF       0.076000
     16 C16          0.6560     0.1080     2.1420 c6         1 WTF       0.199800
     17 N17          1.2300    -0.1120     0.8270 nh         1 WTF      -0.735600
     18 C18          0.2330    -0.2950    -0.2010 c6         1 WTF       0.213800
     19 C19         -0.6980     0.9160    -0.2870 c6         1 WTF       0.096700
     20 C20         -0.0220     2.1390    -0.8920 c3         1 WTF      -0.108100
     21 C21          2.5400     0.0680     0.5970 cc         1 WTF       0.668100
     22 N22          3.4220     0.3120     1.5110 nd         1 WTF      -0.635100
     23 C23          4.6800     0.4150     0.9720 ca         1 WTF       0.133400
     24 C24          4.7600     0.2460    -0.4200 ca         1 WTF      -0.175000
     25 S25          3.1720    -0.0510    -1.0540 ss         1 WTF      -0.046200
     26 C26          5.9570     0.3190    -1.1150 ca         1 WTF      -0.104000
     27 C27          7.0900     0.5700    -0.3660 ca         1 WTF       0.158000
     28 F28          8.2730     0.6500    -1.0020 f          1 WTF      -0.179000
     29 C29          7.0600     0.7430     1.0100 ca         1 WTF      -0.138000
     30 C30          5.8510     0.6660     1.6830 ca         1 WTF      -0.055000
     31 H012        -3.2890    -4.3510    -0.2550 hc         1 WTF       0.055367
     32 H011        -2.0300    -4.1920    -1.4730 hc         1 WTF       0.055367
     33 H013        -1.7240    -3.6390     0.1690 hc         1 WTF       0.055367
     34 H022        -2.1800    -1.6910    -1.3540 h1         1 WTF       0.090200
     35 H021        -3.7220    -2.4050    -1.8310 h1         1 WTF       0.090200
     36 H081        -3.3160     3.3330    -0.1410 ha         1 WTF       0.128000
     37 H091        -5.0310     3.4610    -1.8900 ha         1 WTF       0.123000
     38 H101        -6.2620     1.4210    -2.5820 ha         1 WTF       0.125000
     39 H111        -5.7320    -0.7380    -1.5380 ha         1 WTF       0.132000
     40 H151         0.3310     2.2290     1.9670 h1         1 WTF       0.072200
     41 H152        -0.7790     1.4140     3.0580 h1         1 WTF       0.072200
     42 H162         1.4490     0.2580     2.8700 h1         1 WTF       0.084700
     43 H161         0.0920    -0.7820     2.4310 h1         1 WTF       0.084700
     44 H182         0.6870    -0.4780    -1.1740 h1         1 WTF       0.066200
     45 H181        -0.3520    -1.1860     0.0470 h1         1 WTF       0.066200
     46 H191        -1.5210     0.6290    -0.9410 h1         1 WTF       0.055700
     47 H203         0.8480     2.4640    -0.3230 hc         1 WTF       0.048700
     48 H201         0.3060     1.9210    -1.9080 hc         1 WTF       0.048700
     49 H202        -0.7210     2.9740    -0.9390 hc         1 WTF       0.048700
     50 H261         6.0120     0.1900    -2.1880 ha         1 WTF       0.139000
     51 H291         7.9780     0.9370     1.5490 ha         1 WTF       0.134000
     52 H301         5.8140     0.7960     2.7560 ha         1 WTF       0.135000
@<TRIPOS>BOND
     1     1     2 1   
     2     1    31 1   
     3     1    32 1   
     4     1    33 1   
     5     2     3 1   
     6     2    34 1   
     7     2    35 1   
     8     3     4 2   
     9     3     5 2   
    10     3     6 1   
    11     6     7 ar  
    12     6    11 ar  
    13     7     8 ar  
    14     7    12 1   
    15     8     9 ar  
    16     8    36 1   
    17     9    10 ar  
    18     9    37 1   
    19    10    11 ar  
    20    10    38 1   
    21    11    39 1   
    22    12    13 2   
    23    12    14 1   
    24    14    15 1   
    25    14    19 1   
    26    15    16 1   
    27    15    40 1   
    28    15    41 1   
    29    16    17 1   
    30    16    42 1   
    31    16    43 1   
    32    17    18 1   
    33    17    21 1   
    34    18    19 1   
    35    18    44 1   
    36    18    45 1   
    37    19    20 1   
    38    19    46 1   
    39    20    47 1   
    40    20    48 1   
    41    20    49 1   
    42    21    22 2   
    43    21    25 1   
    44    22    23 1   
    45    23    24 ar  
    46    23    30 ar  
    47    24    25 1   
    48    24    26 ar  
    49    26    27 ar  
    50    26    50 1   
    51    27    28 1   
    52    27    29 ar  
    53    29    30 ar  
    54    29    51 1   
    55    30    52 1   
@<TRIPOS>SUBSTRUCTURE
     1 WTF         1 TEMP              0 ****  ****    0 ROOT
