@<TRIPOS>MOLECULE
WTF
   52    55     1     0     0
SMALL
No Charge or Current Charge


@<TRIPOS>ATOM
      1 C01         -3.0650    -3.7800    -0.0500 c3         1 WTF      -0.073100
      2 C02         -3.2910    -2.3500    -0.5980 c3         1 WTF      -0.299400
      3 S03         -4.2090    -1.2830     0.5410 sy         1 WTF       1.040500
      4 O04         -5.5870    -1.7910     0.5480 o          1 WTF      -0.511000
      5 O05         -3.4330    -1.2030     1.7830 o          1 WTF      -0.511000
      6 C06         -4.2030     0.3260    -0.3120 ca         1 WTF      -0.235500
      7 C07         -3.3920     1.4340     0.0850 ca         1 WTF      -0.045600
      8 C08         -3.5270     2.6610    -0.6000 ca         1 WTF      -0.105000
      9 C09         -4.4100     2.7930    -1.6810 ca         1 WTF      -0.058000
     10 C10         -5.1850     1.6990    -2.0860 ca         1 WTF      -0.116000
     11 C11         -5.0870     0.4770    -1.4040 ca         1 WTF      -0.032000
     12 C12         -2.4010     1.3890     1.2260 c          1 WTF       0.625700
     13 O13         -2.6570     1.9290     2.2960 o          1 WTF      -0.562100
     14 N14         -1.1880     0.6880     1.0270 n          1 WTF      -0.396800
     15 C15         -0.2010     0.5690     2.1490 c6         1 WTF       0.076000
     16 C16          0.7880    -0.6180     2.0090 c6         1 WTF       0.199800
     17 N17          1.4010    -0.6400     0.6530 nh         1 WTF      -0.735600
     18 C18          0.3620    -0.7390    -0.4060 c6         1 WTF       0.213800
     19 C19         -0.6240     0.4720    -0.3460 c6         1 WTF       0.096700
     20 C20          0.0790     1.7600    -0.8620 c3         1 WTF      -0.108100
     21 C21          2.6860    -0.1830     0.4060 cc         1 WTF       0.668100
     22 N22          3.4920     0.1630     1.4160 nd         1 WTF      -0.635100
     23 C23          4.6990     0.5810     0.8710 ca         1 WTF       0.133400
     24 C24          4.7980     0.5450    -0.5060 ca         1 WTF      -0.175000
     25 S25          3.3280    -0.0410    -1.2560 ss         1 WTF      -0.046200
     26 C26          5.9650     0.9420    -1.1790 ca         1 WTF      -0.104000
     27 C27          7.0590     1.3880    -0.4150 ca         1 WTF       0.158000
     28 F28          8.1960     1.7770    -1.0330 f          1 WTF      -0.179000
     29 C29          6.9750     1.4300     0.9910 ca         1 WTF      -0.138000
     30 C30          5.7890     1.0250     1.6390 ca         1 WTF      -0.055000
     31 H012        -4.0210    -4.2790     0.1510 hc         1 WTF       0.055367
     32 H011        -2.5140    -4.3860    -0.7800 hc         1 WTF       0.055367
     33 H013        -2.4840    -3.7580     0.8800 hc         1 WTF       0.055367
     34 H022        -2.3320    -1.8650    -0.7930 h1         1 WTF       0.090200
     35 H021        -3.8620    -2.3870    -1.5320 h1         1 WTF       0.090200
     36 H081        -2.9300     3.5180    -0.2940 ha         1 WTF       0.128000
     37 H091        -4.4930     3.7440    -2.2040 ha         1 WTF       0.123000
     38 H101        -5.8710     1.8000    -2.9240 ha         1 WTF       0.125000
     39 H111        -5.7130    -0.3550    -1.7250 ha         1 WTF       0.132000
     40 H151         0.3760     1.5020     2.2070 h1         1 WTF       0.072200
     41 H152        -0.7350     0.4600     3.1040 h1         1 WTF       0.072200
     42 H162         1.5390    -0.5620     2.8100 h1         1 WTF       0.084700
     43 H161         0.2320    -1.5530     2.1760 h1         1 WTF       0.084700
     44 H182         0.7910    -0.8180    -1.4140 h1         1 WTF       0.066200
     45 H181        -0.2120    -1.6640    -0.2530 h1         1 WTF       0.066200
     46 H191        -1.4420     0.2520    -1.0460 h1         1 WTF       0.055700
     47 H203         0.9100     2.0580    -0.2120 hc         1 WTF       0.048700
     48 H201         0.4790     1.6150    -1.8720 hc         1 WTF       0.048700
     49 H202        -0.6210     2.6020    -0.9060 hc         1 WTF       0.048700
     50 H261         6.0260     0.9080    -2.2640 ha         1 WTF       0.139000
     51 H291         7.8250     1.7760     1.5730 ha         1 WTF       0.134000
     52 H301         5.7170     1.0540     2.7240 ha         1 WTF       0.135000
@<TRIPOS>BOND
     1     1     2 1   
     2     1    31 1   
     3     1    32 1   
     4     1    33 1   
     5     2     3 1   
     6     2    34 1   
     7     2    35 1   
     8     3     4 2   
     9     3     5 2   
    10     3     6 1   
    11     6     7 ar  
    12     6    11 ar  
    13     7     8 ar  
    14     7    12 1   
    15     8     9 ar  
    16     8    36 1   
    17     9    10 ar  
    18     9    37 1   
    19    10    11 ar  
    20    10    38 1   
    21    11    39 1   
    22    12    13 2   
    23    12    14 1   
    24    14    15 1   
    25    14    19 1   
    26    15    16 1   
    27    15    40 1   
    28    15    41 1   
    29    16    17 1   
    30    16    42 1   
    31    16    43 1   
    32    17    18 1   
    33    17    21 1   
    34    18    19 1   
    35    18    44 1   
    36    18    45 1   
    37    19    20 1   
    38    19    46 1   
    39    20    47 1   
    40    20    48 1   
    41    20    49 1   
    42    21    22 2   
    43    21    25 1   
    44    22    23 1   
    45    23    24 ar  
    46    23    30 ar  
    47    24    25 1   
    48    24    26 ar  
    49    26    27 ar  
    50    26    50 1   
    51    27    28 1   
    52    27    29 ar  
    53    29    30 ar  
    54    29    51 1   
    55    30    52 1   
@<TRIPOS>SUBSTRUCTURE
     1 WTF         1 TEMP              0 ****  ****    0 ROOT
