@<TRIPOS>MOLECULE
WTG
   47    49     1     0     0
SMALL
No Charge or Current Charge


@<TRIPOS>ATOM
      1 C27         40.8060    12.4070    10.4390 ca         1 WTG      -0.118000
      2 C28         39.8510    11.7240    11.2070 ca         1 WTG       0.122100
      3 O13         40.8840    14.0600    18.4040 oh         1 WTG      -0.490100
      4 C01         39.1070    10.7670    14.7460 c3         1 WTG       0.153900
      5 C03         40.0280    11.5760    12.5970 ca         1 WTG       0.040100
      6 C04         41.1810    12.1130    13.2110 ca         1 WTG      -0.161000
      7 C05         42.1390    12.8070    12.4430 ca         1 WTG      -0.089300
      8 C06         43.3590    13.4280    13.1190 c3         1 WTG      -0.047100
      9 C07         43.1130    14.8910    13.5520 c3         1 WTG       0.107000
     10 C09         41.7370    14.6570    15.6500 c          1 WTG       0.621300
     11 C11         40.2900    14.5390    16.0880 cc         1 WTG      -0.046200
     12 C12         39.9670    14.2310    17.4050 cd         1 WTG       0.016900
     13 C14         38.5740    14.0540    17.8670 c          1 WTG       0.674700
     14 C17         37.8330    14.4500    15.6570 cc         1 WTG       0.733800
     15 C19         36.7680    14.4940    14.6550 ca         1 WTG      -0.206900
     16 C20         37.0080    14.0070    13.3450 ca         1 WTG      -0.068000
     17 C21         35.9840    13.9950    12.3840 ca         1 WTG      -0.132000
     18 C22         34.7010    14.4570    12.7120 ca         1 WTG      -0.056000
     19 C23         34.4440    14.9250    14.0100 ca         1 WTG      -0.162000
     20 C24         35.4630    14.9370    14.9760 ca         1 WTG       0.241000
     21 C26         41.9470    12.9510    11.0560 ca         1 WTG      -0.095000
     22 F25         35.1700    15.4270    16.2020 f          1 WTG      -0.145000
     23 N08         41.8750    15.0230    14.3260 ns         1 WTG      -0.509900
     24 N16         37.5980    14.1610    16.9090 nd         1 WTG      -0.693100
     25 N18         39.1390    14.7150    15.2470 na         1 WTG      -0.728200
     26 O02         39.0460    10.9130    13.3140 os         1 WTG      -0.371100
     27 O10         42.7230    14.4350    16.3400 o          1 WTG      -0.554100
     28 O15         38.2710    13.8000    19.0250 o          1 WTG      -0.559100
     29 O29         38.7390    11.2050    10.6110 oh         1 WTG      -0.530100
     30 H1          40.6610    12.5210     9.3680 ha         1 WTG       0.136000
     31 H2          40.3800    13.8570    19.2280 ho         1 WTG       0.498000
     32 H3          38.2230    10.2300    15.1110 h1         1 WTG       0.043033
     33 H4          39.9970    10.1980    15.0420 h1         1 WTG       0.043033
     34 H5          39.1360    11.7470    15.2380 h1         1 WTG       0.043033
     35 H6          41.3410    12.0140    14.2810 ha         1 WTG       0.113000
     36 H7          43.6390    12.8410    14.0020 hc         1 WTG       0.057200
     37 H8          44.2280    13.3980    12.4500 hc         1 WTG       0.057200
     38 H9          43.9630    15.2560    14.1450 h1         1 WTG       0.057200
     39 H10         43.0300    15.5220    12.6580 h1         1 WTG       0.057200
     40 H11         37.9850    13.6160    13.0670 ha         1 WTG       0.113000
     41 H12         36.1850    13.6200    11.3820 ha         1 WTG       0.127000
     42 H13         33.9080    14.4470    11.9660 ha         1 WTG       0.124000
     43 H14         33.4520    15.2850    14.2710 ha         1 WTG       0.141000
     44 H15         42.6780    13.4890    10.4560 ha         1 WTG       0.122000
     45 H16         41.0300    15.2250    13.8160 hn         1 WTG       0.315500
     46 H17         39.2240    15.0030    14.2800 hn         1 WTG       0.520000
     47 H18         38.2250    10.7670    11.3250 ho         1 WTG       0.481000
@<TRIPOS>BOND
     1     1     2 ar  
     2     1    21 ar  
     3     1    30 1   
     4     2     5 ar  
     5     2    29 1   
     6     3    12 1   
     7     3    31 1   
     8     4    26 1   
     9     4    32 1   
    10     4    33 1   
    11     4    34 1   
    12     5     6 ar  
    13     5    26 1   
    14     6     7 ar  
    15     6    35 1   
    16     7     8 1   
    17     7    21 ar  
    18     8     9 1   
    19     8    36 1   
    20     8    37 1   
    21     9    23 1   
    22     9    38 1   
    23     9    39 1   
    24    10    11 1   
    25    10    23 1   
    26    10    27 2   
    27    11    12 2   
    28    11    25 1   
    29    12    13 1   
    30    13    24 1   
    31    13    28 2   
    32    14    15 1   
    33    14    24 2   
    34    14    25 1   
    35    15    16 ar  
    36    15    20 ar  
    37    16    17 ar  
    38    16    40 1   
    39    17    18 ar  
    40    17    41 1   
    41    18    19 ar  
    42    18    42 1   
    43    19    20 ar  
    44    19    43 1   
    45    20    22 1   
    46    21    44 1   
    47    23    45 1   
    48    25    46 1   
    49    29    47 1   
@<TRIPOS>SUBSTRUCTURE
     1 WTG         1 TEMP              0 ****  ****    0 ROOT
