@<TRIPOS>MOLECULE
WTG
   47    49     1     0     0
SMALL
abcg2


@<TRIPOS>ATOM
      1 C27         40.9820    13.3950    10.4170 ca         1 WTG      -0.118000
      2 C28         39.9010    12.5460    10.5860 ca         1 WTG       0.122100
      3 O13         41.0000    16.1830    18.3360 oh         1 WTG      -0.490100
      4 C01         38.7330     9.9150    12.7920 c3         1 WTG       0.153900
      5 C03         39.8640    11.7040    11.7080 ca         1 WTG       0.040100
      6 C04         40.9010    11.7340    12.6290 ca         1 WTG      -0.161000
      7 C05         41.9900    12.5910    12.4580 ca         1 WTG      -0.089300
      8 C06         43.0980    12.6250    13.4760 c3         1 WTG      -0.047100
      9 C07         43.1470    13.9260    14.2710 c3         1 WTG       0.107000
     10 C09         41.6330    15.2740    15.6370 c          1 WTG       0.621300
     11 C11         40.2750    15.3210    16.2660 cc         1 WTG      -0.046200
     12 C12         40.0390    15.7600    17.5220 cd         1 WTG       0.016900
     13 C14         38.6710    15.7290    18.0490 c          1 WTG       0.674700
     14 C17         37.9560    14.8710    16.0320 cc         1 WTG       0.733800
     15 C19         36.8920    14.3590    15.1500 ca         1 WTG      -0.206900
     16 C20         37.1150    13.2420    14.3410 ca         1 WTG      -0.068000
     17 C21         36.1190    12.7460    13.5180 ca         1 WTG      -0.132000
     18 C22         34.8750    13.3610    13.4930 ca         1 WTG      -0.056000
     19 C23         34.6290    14.4730    14.2850 ca         1 WTG      -0.162000
     20 C24         35.6340    14.9530    15.1000 ca         1 WTG       0.241000
     21 C26         42.0170    13.4170    11.3440 ca         1 WTG      -0.095000
     22 F25         35.3860    16.0430    15.8300 f          1 WTG      -0.145000
     23 N08         41.9010    14.1370    14.9810 ns         1 WTG      -0.509900
     24 N16         37.6820    15.2530    17.2450 nd         1 WTG      -0.693100
     25 N18         39.1960    14.8910    15.5250 na         1 WTG      -0.728200
     26 O02         38.7750    10.9060    11.7850 os         1 WTG      -0.371100
     27 O10         42.4010    16.2160    15.7220 o          1 WTG      -0.554100
     28 O15         38.4700    16.1160    19.1960 o          1 WTG      -0.559100
     29 O29         38.9140    12.5390     9.6660 oh         1 WTG      -0.530100
     30 H1          41.0130    14.0370     9.5450 ha         1 WTG       0.136000
     31 H2          40.5800    16.4030    19.1840 ho         1 WTG       0.498000
     32 H3          37.8190     9.3480    12.6320 h1         1 WTG       0.043033
     33 H4          39.5890     9.2380    12.7260 h1         1 WTG       0.043033
     34 H5          38.7050    10.3520    13.7930 h1         1 WTG       0.043033
     35 H6          40.8840    11.0820    13.4940 ha         1 WTG       0.113000
     36 H7          42.9970    11.7830    14.1650 hc         1 WTG       0.057200
     37 H8          44.0680    12.5080    12.9870 hc         1 WTG       0.057200
     38 H9          43.9860    13.8930    14.9710 h1         1 WTG       0.057200
     39 H10         43.3220    14.7670    13.5980 h1         1 WTG       0.057200
     40 H11         38.0730    12.7380    14.3730 ha         1 WTG       0.113000
     41 H12         36.3120    11.8790    12.9010 ha         1 WTG       0.127000
     42 H13         34.0900    12.9800    12.8540 ha         1 WTG       0.124000
     43 H14         33.6680    14.9700    14.2680 ha         1 WTG       0.141000
     44 H15         42.8530    14.0870    11.1830 ha         1 WTG       0.122000
     45 H16         41.2930    13.3420    15.1070 hn         1 WTG       0.315500
     46 H17         39.3320    14.6750    14.5450 hn         1 WTG       0.520000
     47 H18         38.2490    11.8790     9.8970 ho         1 WTG       0.481000
@<TRIPOS>BOND
     1     1     2 ar  
     2     1    21 ar  
     3     1    30 1   
     4     2     5 ar  
     5     2    29 1   
     6     3    12 1   
     7     3    31 1   
     8     4    26 1   
     9     4    32 1   
    10     4    33 1   
    11     4    34 1   
    12     5     6 ar  
    13     5    26 1   
    14     6     7 ar  
    15     6    35 1   
    16     7     8 1   
    17     7    21 ar  
    18     8     9 1   
    19     8    36 1   
    20     8    37 1   
    21     9    23 1   
    22     9    38 1   
    23     9    39 1   
    24    10    11 1   
    25    10    23 1   
    26    10    27 2   
    27    11    12 2   
    28    11    25 1   
    29    12    13 1   
    30    13    24 1   
    31    13    28 2   
    32    14    15 1   
    33    14    24 2   
    34    14    25 1   
    35    15    16 ar  
    36    15    20 ar  
    37    16    17 ar  
    38    16    40 1   
    39    17    18 ar  
    40    17    41 1   
    41    18    19 ar  
    42    18    42 1   
    43    19    20 ar  
    44    19    43 1   
    45    20    22 1   
    46    21    44 1   
    47    23    45 1   
    48    25    46 1   
    49    29    47 1   
@<TRIPOS>SUBSTRUCTURE
     1 WTG         1 TEMP              0 ****  ****    0 ROOT
