@<TRIPOS>MOLECULE
WTI
   40    43     1     0     0
SMALL
abcg2


@<TRIPOS>ATOM
      1 N01          6.6050     2.2680     0.1960 nt         1 WTI      -0.603000
      2 C02          6.3450     0.9970     0.5390 c          1 WTI       0.616700
      3 O03          7.1840     0.2630     1.0440 o          1 WTI      -0.604100
      4 C04          4.9600     0.5050     0.2650 ca         1 WTI      -0.153600
      5 C05          4.4970    -0.5940     0.9850 ca         1 WTI      -0.072000
      6 C06          3.2300    -1.1020     0.7610 ca         1 WTI      -0.116500
      7 C07          2.3940    -0.5370    -0.2050 cp         1 WTI      -0.006000
      8 C08          1.0280    -1.0480    -0.4370 cp         1 WTI      -0.165000
      9 C09         -0.0470    -0.1800    -0.4360 ca         1 WTI      -0.020000
     10 C10         -1.3520    -0.6370    -0.6380 ca         1 WTI      -0.113000
     11 C11         -2.4930     0.2690    -0.6470 cc         1 WTI      -0.154000
     12 S12         -2.3850     1.8350    -1.3770 ss         1 WTI       0.218000
     13 C13         -4.0030     2.2340    -0.9650 cc         1 WTI      -0.260000
     14 C14         -4.6050     1.2070    -0.3080 cd         1 WTI       0.052100
     15 O15         -5.8720     1.2270     0.1530 os         1 WTI      -0.311100
     16 C16         -6.3530    -0.0650     0.5150 c6         1 WTI       0.117600
     17 C17         -5.3130    -0.8280     1.3020 c6         1 WTI       0.116600
     18 O18         -4.1380    -1.0330     0.5220 os         1 WTI      -0.308100
     19 C19         -3.7420     0.0820    -0.1240 cd         1 WTI       0.046100
     20 C20         -1.4960    -2.0060    -0.8370 ca         1 WTI       0.420900
     21 N21         -0.4860    -2.8600    -0.8530 nb         1 WTI      -0.751000
     22 C22          0.7560    -2.4170    -0.6680 ca         1 WTI       0.616900
     23 N23          1.7420    -3.3540    -0.6970 nv         1 WTI      -1.051900
     24 C24          2.8680     0.5540    -0.9340 ca         1 WTI      -0.116500
     25 C25          4.1310     1.0720    -0.7000 ca         1 WTI      -0.072000
     26 H011         7.5180     2.6540     0.3750 hn         1 WTI       0.314000
     27 H012         5.8870     2.9140    -0.0810 hn         1 WTI       0.314000
     28 H05          5.1270    -1.0480     1.7370 ha         1 WTI       0.124500
     29 H25          4.4670     1.9030    -1.3070 ha         1 WTI       0.124500
     30 H06          2.8830    -1.9390     1.3530 ha         1 WTI       0.124500
     31 H24          2.2500     0.9930    -1.7070 ha         1 WTI       0.124500
     32 H09          0.1290     0.8720    -0.2400 ha         1 WTI       0.122000
     33 H20         -2.4770    -2.4330    -1.0090 h4         1 WTI       0.030100
     34 H13         -4.4270     3.1900    -1.2310 h4         1 WTI       0.164000
     35 H161        -7.2430     0.0860     1.1240 h1         1 WTI       0.068700
     36 H162        -6.6390    -0.6230    -0.3830 h1         1 WTI       0.068700
     37 H171        -5.0610    -0.2930     2.2230 h1         1 WTI       0.069700
     38 H172        -5.6950    -1.8120     1.5670 h1         1 WTI       0.069700
     39 H231         2.6810    -3.0600    -0.9080 hn         1 WTI       0.478000
     40 H232         1.4860    -4.2430    -1.0950 hn         1 WTI       0.478000
@<TRIPOS>BOND
     1     1     2 1   
     2     1    26 1   
     3     1    27 1   
     4     2     3 2   
     5     2     4 1   
     6     4     5 ar  
     7     4    25 ar  
     8     5     6 ar  
     9     5    28 1   
    10     6     7 ar  
    11     6    30 1   
    12     7     8 1   
    13     7    24 ar  
    14     8     9 ar  
    15     8    22 ar  
    16     9    10 ar  
    17     9    32 1   
    18    10    11 1   
    19    10    20 ar  
    20    11    12 1   
    21    11    19 2   
    22    12    13 1   
    23    13    14 2   
    24    13    34 1   
    25    14    15 1   
    26    14    19 1   
    27    15    16 1   
    28    16    17 1   
    29    16    35 1   
    30    16    36 1   
    31    17    18 1   
    32    17    37 1   
    33    17    38 1   
    34    18    19 1   
    35    20    21 ar  
    36    20    33 1   
    37    21    22 ar  
    38    22    23 1   
    39    23    39 1   
    40    23    40 1   
    41    24    25 ar  
    42    24    31 1   
    43    25    29 1   
@<TRIPOS>SUBSTRUCTURE
     1 WTI         1 TEMP              0 ****  ****    0 ROOT
