@<TRIPOS>MOLECULE
WTI
   40    43     1     0     0
SMALL
No Charge or Current Charge


@<TRIPOS>ATOM
      1 N01          6.8980     2.0850    -0.0740 nt         1 WTI      -0.603000
      2 C02          6.4500     1.0110     0.6140 c          1 WTI       0.616700
      3 O03          7.1920     0.4800     1.4250 o          1 WTI      -0.604100
      4 C04          5.0440     0.5170     0.3430 ca         1 WTI      -0.153600
      5 C05          4.5500    -0.6020     1.0490 ca         1 WTI      -0.072000
      6 C06          3.2500    -1.0810     0.8180 ca         1 WTI      -0.116500
      7 C07          2.4000    -0.4650    -0.1290 cp         1 WTI      -0.006000
      8 C08          1.0090    -0.9590    -0.3740 cp         1 WTI      -0.165000
      9 C09         -0.0730    -0.0510    -0.4260 ca         1 WTI      -0.020000
     10 C10         -1.3750    -0.5340    -0.6540 ca         1 WTI      -0.113000
     11 C11         -2.5050     0.4000    -0.7170 cc         1 WTI      -0.154000
     12 S12         -2.4640     2.0550    -1.3500 ss         1 WTI       0.218000
     13 C13         -4.1620     2.3220    -0.9130 cc         1 WTI      -0.260000
     14 C14         -4.6560     1.2010    -0.3080 cd         1 WTI       0.052100
     15 O15         -5.9490     1.0910     0.1190 os         1 WTI      -0.311100
     16 C16         -6.4150    -0.2330     0.4830 c6         1 WTI       0.117600
     17 C17         -5.3030    -1.0190     1.2330 c6         1 WTI       0.116600
     18 O18         -4.0760    -1.0290     0.4620 os         1 WTI      -0.308100
     19 C19         -3.7430     0.1220    -0.2020 cd         1 WTI       0.046100
     20 C20         -1.5420    -1.9250    -0.8430 ca         1 WTI       0.420900
     21 N21         -0.5200    -2.8120    -0.8120 nb         1 WTI      -0.751000
     22 C22          0.6900    -2.3250    -0.5760 ca         1 WTI       0.616900
     23 N23          1.5790    -3.3210    -0.6260 nv         1 WTI      -1.051900
     24 C24          2.8960     0.6610    -0.8250 ca         1 WTI      -0.116500
     25 C25          4.1960     1.1460    -0.6000 ca         1 WTI      -0.072000
     26 H011         7.8330     2.4220     0.0980 hn         1 WTI       0.314000
     27 H012         6.3050     2.5400    -0.7490 hn         1 WTI       0.314000
     28 H05          5.1730    -1.1030     1.7870 ha         1 WTI       0.124500
     29 H25          4.5280     2.0110    -1.1670 ha         1 WTI       0.124500
     30 H06          2.8920    -1.9330     1.3910 ha         1 WTI       0.124500
     31 H24          2.2670     1.1590    -1.5590 ha         1 WTI       0.124500
     32 H09          0.0990     1.0120    -0.2730 ha         1 WTI       0.122000
     33 H20         -2.5240    -2.3460    -1.0560 h4         1 WTI       0.030100
     34 H13         -4.6470     3.2640    -1.1320 h4         1 WTI       0.164000
     35 H161        -7.3160    -0.1440     1.1060 h1         1 WTI       0.068700
     36 H162        -6.6840    -0.7760    -0.4340 h1         1 WTI       0.068700
     37 H171        -5.1070    -0.5340     2.1990 h1         1 WTI       0.069700
     38 H172        -5.6200    -2.0530     1.4260 h1         1 WTI       0.069700
     39 H231         2.5350    -3.0650    -0.8390 hn         1 WTI       0.478000
     40 H232         1.2340    -4.1780    -1.0400 hn         1 WTI       0.478000
@<TRIPOS>BOND
     1     1     2 1   
     2     1    26 1   
     3     1    27 1   
     4     2     3 2   
     5     2     4 1   
     6     4     5 ar  
     7     4    25 ar  
     8     5     6 ar  
     9     5    28 1   
    10     6     7 ar  
    11     6    30 1   
    12     7     8 1   
    13     7    24 ar  
    14     8     9 ar  
    15     8    22 ar  
    16     9    10 ar  
    17     9    32 1   
    18    10    11 1   
    19    10    20 ar  
    20    11    12 1   
    21    11    19 2   
    22    12    13 1   
    23    13    14 2   
    24    13    34 1   
    25    14    15 1   
    26    14    19 1   
    27    15    16 1   
    28    16    17 1   
    29    16    35 1   
    30    16    36 1   
    31    17    18 1   
    32    17    37 1   
    33    17    38 1   
    34    18    19 1   
    35    20    21 ar  
    36    20    33 1   
    37    21    22 ar  
    38    22    23 1   
    39    23    39 1   
    40    23    40 1   
    41    24    25 ar  
    42    24    31 1   
    43    25    29 1   
@<TRIPOS>SUBSTRUCTURE
     1 WTI         1 TEMP              0 ****  ****    0 ROOT
