@<TRIPOS>MOLECULE
WTJ
   44    46     1     0     0
SMALL
No Charge or Current Charge


@<TRIPOS>ATOM
      1 C01          6.1930     3.2500    -0.8480 c3         1 WTJ       0.149600
      2 N02          6.0620     1.8060    -0.5490 n3         1 WTJ      -0.712600
      3 C03          6.9940     1.3780     0.5220 c3         1 WTJ       0.149600
      4 C04          4.6490     1.4100    -0.3080 c3         1 WTJ       0.148800
      5 C05          4.3960    -0.1160    -0.2190 c3         1 WTJ       0.100000
      6 N06          2.9700    -0.4420    -0.0870 ns         1 WTJ      -0.501900
      7 C07          2.4830    -1.7130     0.1140 c          1 WTJ       0.632700
      8 O08          3.2430    -2.6670     0.2030 o          1 WTJ      -0.633100
      9 C09          0.9920    -1.8380     0.2510 ca         1 WTJ      -0.287600
     10 C10          0.1600    -0.7120     0.4460 ca         1 WTJ      -0.003000
     11 C11         -1.2260    -0.9050     0.5840 ca         1 WTJ      -0.134000
     12 C12         -2.1090     0.2460     0.8060 cc         1 WTJ      -0.154000
     13 S13         -1.7450     1.6740     1.7900 ss         1 WTJ       0.219000
     14 C14         -3.3230     2.3960     1.4240 cc         1 WTJ      -0.260000
     15 C15         -4.0220     1.5620     0.5970 cd         1 WTJ       0.051100
     16 O16         -5.2410     1.8850     0.0700 os         1 WTJ      -0.311100
     17 C17         -5.7090     1.0920    -1.0490 c6         1 WTJ       0.117600
     18 C18         -5.3490    -0.4070    -0.8510 c6         1 WTJ       0.115600
     19 O19         -3.9340    -0.5620    -0.5790 os         1 WTJ      -0.309100
     20 C20         -3.3470     0.3710     0.2340 cd         1 WTJ       0.044100
     21 C21         -1.7190    -2.2270     0.5390 ca         1 WTJ       0.444900
     22 N22         -0.9300    -3.3090     0.3560 nb         1 WTJ      -0.768000
     23 C23          0.3660    -3.0900     0.2110 ca         1 WTJ       0.664900
     24 N24          0.9770    -4.2530     0.0200 nv         1 WTJ      -1.055900
     25 H011         7.2300     3.5020    -1.1040 h1         1 WTJ       0.032700
     26 H012         5.5590     3.5300    -1.7010 h1         1 WTJ       0.032700
     27 H013         5.8940     3.8580     0.0160 h1         1 WTJ       0.032700
     28 H031         6.7130     1.8220     1.4870 h1         1 WTJ       0.032700
     29 H032         7.0000     0.2860     0.6320 h1         1 WTJ       0.032700
     30 H033         8.0210     1.6900     0.2890 h1         1 WTJ       0.032700
     31 H041         4.2850     1.8760     0.6180 h1         1 WTJ       0.032700
     32 H042         4.0250     1.7960    -1.1250 h1         1 WTJ       0.032700
     33 H051         4.7850    -0.6000    -1.1240 h1         1 WTJ       0.061200
     34 H052         4.9280    -0.5290     0.6470 h1         1 WTJ       0.061200
     35 H06          2.2920     0.3030    -0.1730 hn         1 WTJ       0.315500
     36 H10          0.5650     0.2960     0.5010 ha         1 WTJ       0.116000
     37 H21         -2.7800    -2.4340     0.6760 h4         1 WTJ       0.028100
     38 H14         -3.5920     3.3650     1.8210 h4         1 WTJ       0.164000
     39 H171        -6.7950     1.2190    -1.1580 h1         1 WTJ       0.068700
     40 H172        -5.2270     1.4590    -1.9660 h1         1 WTJ       0.068700
     41 H181        -5.9170    -0.8040     0.0020 h1         1 WTJ       0.069200
     42 H182        -5.6150    -0.9920    -1.7420 h1         1 WTJ       0.069200
     43 H241         1.9830    -4.2300     0.1710 hn         1 WTJ       0.502500
     44 H242         0.4750    -5.0610     0.3600 hn         1 WTJ       0.502500
@<TRIPOS>BOND
     1     1     2 1   
     2     1    25 1   
     3     1    26 1   
     4     1    27 1   
     5     2     3 1   
     6     2     4 1   
     7     3    28 1   
     8     3    29 1   
     9     3    30 1   
    10     4     5 1   
    11     4    31 1   
    12     4    32 1   
    13     5     6 1   
    14     5    33 1   
    15     5    34 1   
    16     6     7 1   
    17     6    35 1   
    18     7     8 2   
    19     7     9 1   
    20     9    10 ar  
    21     9    23 ar  
    22    10    11 ar  
    23    10    36 1   
    24    11    12 1   
    25    11    21 ar  
    26    12    13 1   
    27    12    20 2   
    28    13    14 1   
    29    14    15 2   
    30    14    38 1   
    31    15    16 1   
    32    15    20 1   
    33    16    17 1   
    34    17    18 1   
    35    17    39 1   
    36    17    40 1   
    37    18    19 1   
    38    18    41 1   
    39    18    42 1   
    40    19    20 1   
    41    21    22 ar  
    42    21    37 1   
    43    22    23 ar  
    44    23    24 1   
    45    24    43 1   
    46    24    44 1   
@<TRIPOS>SUBSTRUCTURE
     1 WTJ         1 TEMP              0 ****  ****    0 ROOT
