@<TRIPOS>MOLECULE
WTJ
   44    46     1     0     0
SMALL
abcg2


@<TRIPOS>ATOM
      1 C01          6.0790     2.9880    -1.1300 c3         1 WTJ       0.149600
      2 N02          5.9230     1.7080    -0.4720 n3         1 WTJ      -0.712600
      3 C03          6.5180     1.7360     0.8480 c3         1 WTJ       0.149600
      4 C04          4.5340     1.2970    -0.4440 c3         1 WTJ       0.148800
      5 C05          4.3850    -0.1980    -0.1930 c3         1 WTJ       0.100000
      6 N06          2.9790    -0.5450    -0.1700 ns         1 WTJ      -0.501900
      7 C07          2.5360    -1.7260     0.2870 c          1 WTJ       0.632700
      8 O08          3.3010    -2.5990     0.6880 o          1 WTJ      -0.633100
      9 C09          1.0590    -1.9090     0.2980 ca         1 WTJ      -0.287600
     10 C10          0.2070    -0.8360     0.4950 ca         1 WTJ      -0.003000
     11 C11         -1.1760    -1.0010     0.5330 ca         1 WTJ      -0.134000
     12 C12         -2.0810     0.1140     0.7840 cc         1 WTJ      -0.154000
     13 S13         -1.6670     1.3640     1.9080 ss         1 WTJ       0.219000
     14 C14         -3.1240     2.2250     1.6210 cc         1 WTJ      -0.260000
     15 C15         -3.9020     1.5750     0.7150 cd         1 WTJ       0.051100
     16 O16         -5.1090     2.0010     0.2920 os         1 WTJ      -0.311100
     17 C17         -5.5300     1.3660    -0.9130 c6         1 WTJ       0.117600
     18 C18         -5.2860    -0.1240    -0.8510 c6         1 WTJ       0.115600
     19 O19         -3.8960    -0.4050    -0.6990 os         1 WTJ      -0.309100
     20 C20         -3.3050     0.3690     0.2320 cd         1 WTJ       0.044100
     21 C21         -1.6370    -2.3040     0.3520 ca         1 WTJ       0.444900
     22 N22         -0.8550    -3.3490     0.1630 nb         1 WTJ      -0.768000
     23 C23          0.4730    -3.1930     0.1490 ca         1 WTJ       0.664900
     24 N24          1.2020    -4.3060    -0.0610 nv         1 WTJ      -1.055900
     25 H011         7.1370     3.2490    -1.1850 h1         1 WTJ       0.032700
     26 H012         5.6950     2.9370    -2.1500 h1         1 WTJ       0.032700
     27 H013         5.5600     3.8110    -0.6160 h1         1 WTJ       0.032700
     28 H031         6.0210     2.4460     1.5280 h1         1 WTJ       0.032700
     29 H032         6.4890     0.7520     1.3160 h1         1 WTJ       0.032700
     30 H033         7.5670     2.0270     0.7720 h1         1 WTJ       0.032700
     31 H041         3.9500     1.8570     0.3070 h1         1 WTJ       0.032700
     32 H042         4.0940     1.5270    -1.4180 h1         1 WTJ       0.032700
     33 H051         4.9140    -0.7520    -0.9740 h1         1 WTJ       0.061200
     34 H052         4.8270    -0.4820     0.7610 h1         1 WTJ       0.061200
     35 H06          2.3430     0.0530    -0.6730 hn         1 WTJ       0.315500
     36 H10          0.6230     0.1550     0.6380 ha         1 WTJ       0.116000
     37 H21         -2.7010    -2.5110     0.3780 h4         1 WTJ       0.028100
     38 H14         -3.3330     3.1530     2.1290 h4         1 WTJ       0.164000
     39 H171        -6.5950     1.5630    -1.0220 h1         1 WTJ       0.068700
     40 H172        -5.0060     1.8030    -1.7690 h1         1 WTJ       0.068700
     41 H181        -5.8480    -0.5710    -0.0240 h1         1 WTJ       0.069200
     42 H182        -5.6050    -0.5940    -1.7800 h1         1 WTJ       0.069200
     43 H241         2.1810    -4.2980     0.1710 hn         1 WTJ       0.502500
     44 H242         0.7230    -5.1890    -0.0150 hn         1 WTJ       0.502500
@<TRIPOS>BOND
     1     1     2 1   
     2     1    25 1   
     3     1    26 1   
     4     1    27 1   
     5     2     3 1   
     6     2     4 1   
     7     3    28 1   
     8     3    29 1   
     9     3    30 1   
    10     4     5 1   
    11     4    31 1   
    12     4    32 1   
    13     5     6 1   
    14     5    33 1   
    15     5    34 1   
    16     6     7 1   
    17     6    35 1   
    18     7     8 2   
    19     7     9 1   
    20     9    10 ar  
    21     9    23 ar  
    22    10    11 ar  
    23    10    36 1   
    24    11    12 1   
    25    11    21 ar  
    26    12    13 1   
    27    12    20 2   
    28    13    14 1   
    29    14    15 2   
    30    14    38 1   
    31    15    16 1   
    32    15    20 1   
    33    16    17 1   
    34    17    18 1   
    35    17    39 1   
    36    17    40 1   
    37    18    19 1   
    38    18    41 1   
    39    18    42 1   
    40    19    20 1   
    41    21    22 ar  
    42    21    37 1   
    43    22    23 ar  
    44    23    24 1   
    45    24    43 1   
    46    24    44 1   
@<TRIPOS>SUBSTRUCTURE
     1 WTJ         1 TEMP              0 ****  ****    0 ROOT
