@<TRIPOS>MOLECULE
WTP
   55    58     1     0     0
SMALL
bcc


@<TRIPOS>ATOM
      1 C4          25.2390    29.7180    22.0470 ca         1 WTP       0.766200
      2 C5          25.2320    31.0980    21.7460 ca         1 WTP      -0.360200
      3 C6          26.3700    31.8120    22.0360 ca         1 WTP       0.523200
      4 N1          27.4500    31.2670    22.5770 nb         1 WTP      -0.805000
      5 N3          26.3270    29.1760    22.5910 nb         1 WTP      -0.844000
      6 C2          27.3710    29.9560    22.8310 ca         1 WTP       0.956900
      7 CAE         24.1450    27.5220    22.1280 c3         1 WTP       0.215800
      8 CAF         23.8760    27.2700    23.6140 c5         1 WTP       0.119100
      9 CAH         22.7120    25.3420    24.2300 c5         1 WTP       0.130400
     10 CAI         21.6810    26.3890    23.8380 c5         1 WTP      -0.115400
     11 CAJ         22.4680    27.6780    24.0460 c5         1 WTP      -0.109400
     12 CAN         28.8040    28.1320    23.8000 ca         1 WTP       0.143600
     13 CAO         27.9660    27.0240    23.7170 ca         1 WTP      -0.141500
     14 CAP         28.3900    25.7770    24.1650 ca         1 WTP      -0.146500
     15 CAQ         29.6640    25.5720    24.6950 ca         1 WTP       0.121600
     16 CAS         29.2870    23.1710    24.8400 c6         1 WTP       0.193800
     17 CAT         30.0660    21.8830    25.0360 c6         1 WTP       0.157300
     18 CAW         31.4900    22.9470    26.6020 c6         1 WTP       0.157300
     19 CAX         30.7240    24.2430    26.4310 c6         1 WTP       0.193800
     20 CAY         30.5000    26.6950    24.7700 ca         1 WTP      -0.146500
     21 CAZ         30.0800    27.9360    24.3430 ca         1 WTP      -0.141500
     22 NAD         24.1900    28.9270    21.7960 nu         1 WTP      -0.867900
     23 NAM         28.4910    29.4270    23.3880 nu         1 WTP      -0.727300
     24 NAR         30.1310    24.3180    25.1040 nh         1 WTP      -0.642000
     25 NAU         30.6320    21.8050    26.3660 n3         1 WTP      -0.713600
     26 OAG         23.9740    25.8730    23.8530 os         1 WTP      -0.413600
     27 CL5         23.8470    31.8550    21.0440 cl         1 WTP      -0.102400
     28 H6          26.4100    32.8750    21.8210 h4         1 WTP       0.031100
     29 HAF         23.3550    27.0730    21.5240 h1         1 WTP       0.064700
     30 HAE         25.0830    27.0450    21.8380 h1         1 WTP       0.064700
     31 HAG         24.6420    27.7860    24.2020 h1         1 WTP       0.083700
     32 HAH         22.5620    24.3830    23.7290 h1         1 WTP       0.046200
     33 HAI         22.6860    25.1620    25.3120 h1         1 WTP       0.046200
     34 HAK         21.3840    26.2760    22.7940 hc         1 WTP       0.053700
     35 HAJ         20.7790    26.3340    24.4470 hc         1 WTP       0.053700
     36 HAL         22.4620    27.9640    25.0990 hc         1 WTP       0.056700
     37 HAM         22.0810    28.5230    23.4760 hc         1 WTP       0.056700
     38 HAO         26.9710    27.1200    23.3140 ha         1 WTP       0.146000
     39 HAP         27.6840    24.9610    24.0930 ha         1 WTP       0.134500
     40 HAT         28.9400    23.2030    23.8070 h1         1 WTP       0.043700
     41 HAU         29.3860    21.0410    24.8850 h1         1 WTP       0.038700
     42 HAV         30.8460    21.8110    24.2580 h1         1 WTP       0.038700
     43 HAX         31.7270    20.5150    27.5890 h1         1 WTP       0.031033
     44 HAY         30.6560    19.7180    26.4360 h1         1 WTP       0.031033
     45 HAW         32.1810    20.4240    25.8790 h1         1 WTP       0.031033
     46 HA0         32.3600    22.9510    25.9210 h1         1 WTP       0.038700
     47 HAZ         31.8790    22.9010    27.6220 h1         1 WTP       0.038700
     48 HA2         31.4160    25.0700    26.5840 h1         1 WTP       0.043700
     49 HA1         29.9500    24.3190    27.2100 h1         1 WTP       0.043700
     50 HA3         31.5090    26.6010    25.1520 ha         1 WTP       0.134500
     51 HA4         30.7660    28.7730    24.4180 ha         1 WTP       0.146000
     52 HAD         23.3590    29.3470    21.4150 hn         1 WTP       0.452800
     53 H6M         29.2190    30.1110    23.5280 hn         1 WTP       0.455800
     54 HAS         28.3950    23.1610    25.4860 h1         1 WTP       0.043700
     55 CAV         31.3360    20.5600    26.5720 c3         1 WTP       0.152100
@<TRIPOS>BOND
     1     1     2 ar  
     2     1     5 ar  
     3     1    22 1   
     4     2     3 ar  
     5     2    27 1   
     6     3     4 ar  
     7     3    28 1   
     8     4     6 ar  
     9     5     6 ar  
    10     6    23 1   
    11     7     8 1   
    12     7    22 1   
    13     7    29 1   
    14     7    30 1   
    15     8    11 1   
    16     8    26 1   
    17     8    31 1   
    18     9    10 1   
    19     9    26 1   
    20     9    32 1   
    21     9    33 1   
    22    10    11 1   
    23    10    34 1   
    24    10    35 1   
    25    11    36 1   
    26    11    37 1   
    27    12    13 ar  
    28    12    21 ar  
    29    12    23 1   
    30    13    14 ar  
    31    13    38 1   
    32    14    15 ar  
    33    14    39 1   
    34    15    20 ar  
    35    15    24 1   
    36    16    17 1   
    37    16    24 1   
    38    16    40 1   
    39    16    54 1   
    40    17    25 1   
    41    17    41 1   
    42    17    42 1   
    43    18    19 1   
    44    18    25 1   
    45    18    46 1   
    46    18    47 1   
    47    19    24 1   
    48    19    48 1   
    49    19    49 1   
    50    20    21 ar  
    51    20    50 1   
    52    21    51 1   
    53    22    52 1   
    54    23    53 1   
    55    25    55 1   
    56    43    55 1   
    57    44    55 1   
    58    45    55 1   
@<TRIPOS>SUBSTRUCTURE
     1 WTP         1 TEMP              0 ****  ****    0 ROOT
