@<TRIPOS>MOLECULE
WTP
   55    58     1     0     0
SMALL
No Charge or Current Charge


@<TRIPOS>ATOM
      1 C4          25.3200    29.7850    21.8700 ca         1 WTP       0.437900
      2 C5          25.1750    31.1810    21.7910 ca         1 WTP      -0.138000
      3 C6          26.1420    31.9610    22.4450 ca         1 WTP       0.194900
      4 N1          27.1620    31.3960    23.1200 nb         1 WTP      -0.279000
      5 N3          26.3350    29.2180    22.5420 nb         1 WTP      -0.318000
      6 C2          27.1960    30.0540    23.1410 ca         1 WTP       0.430900
      7 CAE         24.2550    27.4730    21.4640 c3         1 WTP       0.215800
      8 CAF         23.7230    27.1190    22.8820 c5         1 WTP       0.142300
      9 CAH         22.9210    25.4430    24.2750 c5         1 WTP       0.153600
     10 CAI         21.9890    26.6830    24.4530 c5         1 WTP      -0.115400
     11 CAJ         22.2560    27.5140    23.1670 c5         1 WTP      -0.109400
     12 CAN         28.6570    28.2180    24.1870 ca         1 WTP       0.282000
     13 CAO         27.7200    27.1920    24.4160 ca         1 WTP      -0.123500
     14 CAP         28.1440    25.9040    24.7950 ca         1 WTP      -0.128500
     15 CAQ         29.5140    25.6190    24.9650 ca         1 WTP       0.260000
     16 CAS         29.1470    23.1060    25.0510 c6         1 WTP       0.193800
     17 CAT         30.0050    21.7980    25.0480 c6         1 WTP       0.157300
     18 CAW         31.6650    22.8350    26.5120 c6         1 WTP       0.157300
     19 CAX         30.8420    24.1640    26.5470 c6         1 WTP       0.193800
     20 CAY         30.4470    26.6520    24.7510 ca         1 WTP      -0.128500
     21 CAZ         30.0220    27.9390    24.3710 ca         1 WTP      -0.123500
     22 NAD         24.4110    28.9320    21.2500 nu         1 WTP      -0.923100
     23 NAM         28.2770    29.5150    23.8200 nu         1 WTP      -0.920900
     24 NAR         29.9610    24.3300    25.3450 nh         1 WTP      -0.780400
     25 NAU         30.8100    21.6280    26.2950 n3         1 WTP      -0.713600
     26 OAG         23.6720    25.6920    23.0670 os         1 WTP      -0.460000
     27 Cl5         23.8430    31.9450    20.9130 cl         1 WTP      -0.194000
     28 H6          26.1040    33.0490    22.4280 h4         1 WTP       0.031100
     29 HAF         23.5570    27.0600    20.7230 h1         1 WTP       0.064700
     30 HAE         25.2200    26.9690    21.3160 h1         1 WTP       0.064700
     31 HAG         24.3990    27.5480    23.6350 h1         1 WTP       0.083700
     32 HAH         22.3580    24.5060    24.1640 h1         1 WTP       0.046200
     33 HAI         23.6160    25.3380    25.1190 h1         1 WTP       0.046200
     34 HAK         20.9350    26.4010    24.5540 hc         1 WTP       0.053700
     35 HAJ         22.2620    27.2430    25.3550 hc         1 WTP       0.053700
     36 HAL         22.1300    28.5910    23.3240 hc         1 WTP       0.056700
     37 HAM         21.5940    27.2150    22.3460 hc         1 WTP       0.056700
     38 HAO         26.6580    27.3860    24.3220 ha         1 WTP       0.128000
     39 HAP         27.3960    25.1370    24.9720 ha         1 WTP       0.116500
     40 HAT         28.6600    23.1990    24.0690 h1         1 WTP       0.043700
     41 HAU         29.3310    20.9400    24.9100 h1         1 WTP       0.038700
     42 HAV         30.6710    21.8240    24.1720 h1         1 WTP       0.038700
     43 HAX         32.1280    20.2570    27.2550 h1         1 WTP       0.031033
     44 HAY         30.9210    19.5030    26.1910 h1         1 WTP       0.031033
     45 HAW         32.3190    20.3530    25.4880 h1         1 WTP       0.031033
     46 HA0         32.4150    22.9130    25.7110 h1         1 WTP       0.038700
     47 HAZ         32.2180    22.7440    27.4580 h1         1 WTP       0.038700
     48 HA2         31.5480    25.0030    26.6340 h1         1 WTP       0.043700
     49 HA1         30.2230    24.1700    27.4560 h1         1 WTP       0.043700
     50 HA3         31.5090    26.4550    24.8660 ha         1 WTP       0.116500
     51 HA4         30.7620    28.7180    24.2070 ha         1 WTP       0.128000
     52 HAD         23.6630    29.4140    20.7470 hn         1 WTP       0.508000
     53 H6M         28.9810    30.2220    24.0270 hn         1 WTP       0.511000
     54 HAS         28.3510    23.0010    25.8040 h1         1 WTP       0.043700
     55 CAV         31.5860    20.3700    26.3070 c3         1 WTP       0.152100
@<TRIPOS>BOND
     1     1     2 ar  
     2     1     5 ar  
     3     1    22 1   
     4     2     3 ar  
     5     2    27 1   
     6     3     4 ar  
     7     3    28 1   
     8     4     6 ar  
     9     5     6 ar  
    10     6    23 1   
    11     7     8 1   
    12     7    22 1   
    13     7    29 1   
    14     7    30 1   
    15     8    11 1   
    16     8    26 1   
    17     8    31 1   
    18     9    10 1   
    19     9    26 1   
    20     9    32 1   
    21     9    33 1   
    22    10    11 1   
    23    10    34 1   
    24    10    35 1   
    25    11    36 1   
    26    11    37 1   
    27    12    13 ar  
    28    12    21 ar  
    29    12    23 1   
    30    13    14 ar  
    31    13    38 1   
    32    14    15 ar  
    33    14    39 1   
    34    15    20 ar  
    35    15    24 1   
    36    16    17 1   
    37    16    24 1   
    38    16    40 1   
    39    16    54 1   
    40    17    25 1   
    41    17    41 1   
    42    17    42 1   
    43    18    19 1   
    44    18    25 1   
    45    18    46 1   
    46    18    47 1   
    47    19    24 1   
    48    19    48 1   
    49    19    49 1   
    50    20    21 ar  
    51    20    50 1   
    52    21    51 1   
    53    22    52 1   
    54    23    53 1   
    55    25    55 1   
    56    43    55 1   
    57    44    55 1   
    58    45    55 1   
@<TRIPOS>SUBSTRUCTURE
     1 WTP         1 TEMP              0 ****  ****    0 ROOT
