@<TRIPOS>MOLECULE
WTS
   76    79     1     0     0
SMALL
No Charge or Current Charge


@<TRIPOS>ATOM
      1 C16         -0.8850    -3.7330     0.6840 c3         1 WTS      -0.026900
      2 C15         -1.8260    -1.3900     0.9530 c2         1 WTS      -0.116200
      3 C14         -1.6690    -2.6480     1.4010 ce         1 WTS      -0.227400
      4 C11         -3.6990     0.0560     4.5820 c2         1 WTS      -0.128400
      5 C10         -3.8770    -1.4180     4.1780 c3         1 WTS      -0.055200
      6 C9          -3.5240    -1.8060     2.6930 c5         1 WTS       0.089000
      7 C12         -4.0060     1.1190     3.8080 c2         1 WTS      -0.174200
      8 C13         -2.4660    -2.9640     2.6160 c          1 WTS       0.550300
      9 C8          -2.7850    -0.6620     1.8870 c5         1 WTS      -0.033500
     10 O1          -2.7090     1.5810     0.9810 oh         1 WTS      -0.684000
     11 C2          -4.5270     0.2260     0.0150 c6         1 WTS      -0.080700
     12 C7          -3.6440     0.5350     1.2990 c6         1 WTS       0.246000
     13 C6          -4.6390     1.0130     2.4220 c6         1 WTS      -0.040500
     14 C5          -5.4360     2.2740     2.0260 cx         1 WTS      -0.110700
     15 C4          -5.8300     2.5010     0.5780 cx         1 WTS       0.101000
     16 C3          -5.2990     1.4940    -0.4970 c6         1 WTS       0.185300
     17 C1          -3.7650    -0.4080    -1.1920 c3         1 WTS      -0.086100
     18 C17         -3.1180     0.2280     5.9770 c3         1 WTS       0.198800
     19 C18         -6.9030     2.1970     1.6190 cx         1 WTS      -0.058000
     20 C19         -7.7040     0.8860     1.5870 c3         1 WTS      -0.060600
     21 C20         -7.8200     3.3160     2.1270 c3         1 WTS      -0.060600
     22 C21         -4.6740     4.5620     0.0270 c          1 WTS       0.601100
     23 C22         -4.9180     5.9900    -0.4690 c3         1 WTS      -0.134400
     24 C23         -4.8570     6.1040    -2.0130 c3         1 WTS      -0.067400
     25 C24         -3.4990     5.7030    -2.6260 c3         1 WTS      -0.094100
     26 C26         -7.9150     1.2780    -3.2160 c3         1 WTS      -0.134400
     27 C27         -9.1690     2.1620    -3.0090 c3         1 WTS      -0.062400
     28 C28         -9.6130     2.2860    -1.5380 c3         1 WTS      -0.091100
     29 O2          -4.7370    -2.2540     2.0490 oh         1 WTS      -0.652000
     30 O3          -2.3610    -3.9720     3.3070 o          1 WTS      -0.519100
     31 O4          -1.6920     0.1310     5.9200 oh         1 WTS      -0.657000
     32 O5          -5.8340     3.8430     0.1190 os         1 WTS      -0.413100
     33 O6          -3.5700     4.1160     0.3080 o          1 WTS      -0.498000
     34 O7          -6.3770     1.0980    -1.3750 os         1 WTS      -0.441100
     35 O8          -6.0480     2.7970    -2.8850 o          1 WTS      -0.498000
     36 H1          -1.3760    -4.7100     0.7720 hc         1 WTS       0.045700
     37 H2          -0.7830    -3.5140    -0.3860 hc         1 WTS       0.045700
     38 H3           0.1250    -3.8300     1.1010 hc         1 WTS       0.045700
     39 H4          -1.3430    -0.9700     0.0690 ha         1 WTS       0.205000
     40 H7          -4.9000    -1.7280     4.4270 hc         1 WTS       0.066700
     41 H8          -3.2500    -2.0310     4.8370 hc         1 WTS       0.066700
     42 H9          -3.8210     2.1280     4.1800 ha         1 WTS       0.175000
     43 H10         -2.1060    -0.1560     2.5830 hc         1 WTS       0.104700
     44 H11         -3.2110     2.4260     0.8880 ho         1 WTS       0.484000
     45 H12         -5.2720    -0.5280     0.2830 hc         1 WTS       0.082700
     46 H13         -5.3810     0.2170     2.5320 hc         1 WTS       0.087700
     47 H14         -5.1190     3.1620     2.5680 hc         1 WTS       0.094700
     48 H15         -4.5620     2.0510    -1.0920 h1         1 WTS       0.085700
     49 H16         -3.4860    -1.4490    -0.9950 hc         1 WTS       0.042700
     50 H17         -4.3920    -0.4380    -2.0910 hc         1 WTS       0.042700
     51 H18         -2.8620     0.1580    -1.4480 hc         1 WTS       0.042700
     52 H19         -3.4150     1.2050     6.3810 h1         1 WTS       0.025700
     53 H20         -3.5270    -0.5380     6.6500 h1         1 WTS       0.025700
     54 H21         -7.9410     0.5540     2.6050 hc         1 WTS       0.043033
     55 H22         -8.6530     1.0200     1.0570 hc         1 WTS       0.043033
     56 H23         -7.1830     0.0660     1.0900 hc         1 WTS       0.043033
     57 H24         -8.2550     3.0560     3.0990 hc         1 WTS       0.043033
     58 H25         -7.2820     4.2630     2.2570 hc         1 WTS       0.043033
     59 H26         -8.6440     3.5000     1.4280 hc         1 WTS       0.043033
     60 H27         -4.1720     6.6600    -0.0270 hc         1 WTS       0.071700
     61 H28         -5.9290     6.2930    -0.1750 hc         1 WTS       0.071700
     62 H29         -5.0790     7.1400    -2.2970 hc         1 WTS       0.048700
     63 H30         -5.6480     5.4850    -2.4540 hc         1 WTS       0.048700
     64 H31         -3.5050     5.8780    -3.7080 hc         1 WTS       0.041033
     65 H32         -2.6850     6.2940    -2.1890 hc         1 WTS       0.041033
     66 H33         -3.2880     4.6410    -2.4570 hc         1 WTS       0.041033
     67 H34         -7.6940     1.2370    -4.2890 hc         1 WTS       0.072200
     68 H35         -8.1370     0.2710    -2.8440 hc         1 WTS       0.072200
     69 H36         -8.9760     3.1650    -3.4100 hc         1 WTS       0.043700
     70 H37         -9.9970     1.7440    -3.5940 hc         1 WTS       0.043700
     71 H38        -10.5230     2.8930    -1.4640 hc         1 WTS       0.036700
     72 H39         -9.8260     1.2970    -1.1140 hc         1 WTS       0.036700
     73 H40         -8.8350     2.7660    -0.9340 hc         1 WTS       0.036700
     74 H41         -5.0070    -3.0960     2.4790 ho         1 WTS       0.454000
     75 H42         -1.3630     0.2710     6.8350 ho         1 WTS       0.443000
     76 C25         -6.6870     1.8330    -2.4890 c          1 WTS       0.602100
@<TRIPOS>BOND
     1     1     3 1   
     2     1    36 1   
     3     1    37 1   
     4     1    38 1   
     5     2     3 2   
     6     2     9 1   
     7     2    39 1   
     8     3     8 1   
     9     4     5 1   
    10     4     7 2   
    11     4    18 1   
    12     5     6 1   
    13     5    40 1   
    14     5    41 1   
    15     6     8 1   
    16     6     9 1   
    17     6    29 1   
    18     7    13 1   
    19     7    42 1   
    20     8    30 2   
    21     9    12 1   
    22     9    43 1   
    23    10    12 1   
    24    10    44 1   
    25    11    12 1   
    26    11    16 1   
    27    11    17 1   
    28    11    45 1   
    29    12    13 1   
    30    13    14 1   
    31    13    46 1   
    32    14    15 1   
    33    14    19 1   
    34    14    47 1   
    35    15    16 1   
    36    15    19 1   
    37    15    32 1   
    38    16    34 1   
    39    16    48 1   
    40    17    49 1   
    41    17    50 1   
    42    17    51 1   
    43    18    31 1   
    44    18    52 1   
    45    18    53 1   
    46    19    20 1   
    47    19    21 1   
    48    20    54 1   
    49    20    55 1   
    50    20    56 1   
    51    21    57 1   
    52    21    58 1   
    53    21    59 1   
    54    22    23 1   
    55    22    32 1   
    56    22    33 2   
    57    23    24 1   
    58    23    60 1   
    59    23    61 1   
    60    24    25 1   
    61    24    62 1   
    62    24    63 1   
    63    25    64 1   
    64    25    65 1   
    65    25    66 1   
    66    26    27 1   
    67    26    67 1   
    68    26    68 1   
    69    26    76 1   
    70    27    28 1   
    71    27    69 1   
    72    27    70 1   
    73    28    71 1   
    74    28    72 1   
    75    28    73 1   
    76    29    74 1   
    77    31    75 1   
    78    34    76 1   
    79    35    76 2   
@<TRIPOS>SUBSTRUCTURE
     1 WTS         1 TEMP              0 ****  ****    0 ROOT
