@<TRIPOS>MOLECULE
WTS
   76    79     1     0     0
SMALL
bcc


@<TRIPOS>ATOM
      1 C16         -1.4390    -3.7940     0.4850 c3         1 WTS      -0.026900
      2 C15         -2.2100    -1.3950     0.8630 c2         1 WTS      -0.066200
      3 C14         -2.2050    -2.7030     1.1470 ce         1 WTS      -0.227400
      4 C11         -3.7210     0.1600     4.5470 c2         1 WTS      -0.128400
      5 C10         -3.7570    -1.2910     4.1380 c3         1 WTS      -0.055200
      6 C9          -3.7990    -1.6110     2.6400 c5         1 WTS       0.065800
      7 C12         -4.0710     1.2100     3.8010 c2         1 WTS      -0.124200
      8 C13         -3.0680    -2.9260     2.3080 c          1 WTS       0.550300
      9 C8          -3.0290    -0.5750     1.8120 c5         1 WTS      -0.033500
     10 O1          -2.7490     1.5650     0.9970 oh         1 WTS      -0.621800
     11 C2          -4.7130     0.4540     0.0580 c6         1 WTS      -0.080700
     12 C7          -3.7910     0.6630     1.2930 c6         1 WTS       0.222800
     13 C6          -4.7100     1.1670     2.4400 c6         1 WTS      -0.040500
     14 C5          -5.3290     2.5110     2.0920 cx         1 WTS      -0.110700
     15 C4          -5.6490     2.8060     0.6550 cx         1 WTS       0.077800
     16 C3          -5.2680     1.8110    -0.4170 c6         1 WTS       0.162100
     17 C1          -4.0590    -0.2370    -1.1340 c3         1 WTS      -0.086100
     18 C17         -3.1920     0.3860     5.9370 c3         1 WTS       0.175600
     19 C18         -6.7670     2.6150     1.6410 cx         1 WTS      -0.058000
     20 C19         -7.6730     1.4070     1.5930 c3         1 WTS      -0.060600
     21 C20         -7.5290     3.8500     2.0790 c3         1 WTS      -0.060600
     22 C21         -4.3910     4.7610     0.1360 c          1 WTS       0.650100
     23 C22         -4.5230     6.1580    -0.3960 c3         1 WTS      -0.134400
     24 C23         -4.7360     6.1760    -1.9150 c3         1 WTS      -0.067400
     25 C24         -3.5680     5.5950    -2.6980 c3         1 WTS      -0.094100
     26 C26         -7.8130     1.7600    -3.1440 c3         1 WTS      -0.134400
     27 C27         -8.9670     1.2520    -2.2850 c3         1 WTS      -0.062400
     28 C28         -8.8880    -0.2240    -1.9210 c3         1 WTS      -0.091100
     29 O2          -5.1060    -1.7690     2.1250 oh         1 WTS      -0.589800
     30 O3          -3.2280    -3.9670     2.9070 o          1 WTS      -0.519100
     31 O4          -1.8370    -0.0140     5.9950 oh         1 WTS      -0.594800
     32 O5          -5.5630     4.1370     0.1770 os         1 WTS      -0.389900
     33 O6          -3.3460     4.2480     0.4660 o          1 WTS      -0.547000
     34 O7          -6.4290     1.5790    -1.2280 os         1 WTS      -0.417900
     35 O8          -5.5620     2.5520    -3.0480 o          1 WTS      -0.547000
     36 H1          -2.1070    -4.5530     0.0740 hc         1 WTS       0.045700
     37 H2          -0.8270    -3.4080    -0.3280 hc         1 WTS       0.045700
     38 H3          -0.7810    -4.3000     1.1930 hc         1 WTS       0.045700
     39 H4          -1.6090    -0.9440     0.0830 ha         1 WTS       0.155000
     40 H7          -4.5820    -1.8000     4.6520 hc         1 WTS       0.066700
     41 H8          -2.8530    -1.7470     4.5530 hc         1 WTS       0.066700
     42 H9          -3.9290     2.1950     4.2380 ha         1 WTS       0.125000
     43 H10         -2.2960    -0.1230     2.4920 hc         1 WTS       0.104700
     44 H11         -3.0800     2.4660     0.8510 ho         1 WTS       0.445000
     45 H12         -5.5470    -0.1700     0.3800 hc         1 WTS       0.082700
     46 H13         -5.5120     0.4320     2.5070 hc         1 WTS       0.087700
     47 H14         -4.9730     3.3510     2.6820 hc         1 WTS       0.094700
     48 H15         -4.4980     2.2720    -1.0420 h1         1 WTS       0.085700
     49 H16         -3.8280    -1.2770    -0.9140 hc         1 WTS       0.042700
     50 H17         -4.7300    -0.2510    -1.9930 hc         1 WTS       0.042700
     51 H18         -3.1410     0.2660    -1.4390 hc         1 WTS       0.042700
     52 H19         -3.3110     1.4420     6.2090 h1         1 WTS       0.025700
     53 H20         -3.8010    -0.1950     6.6430 h1         1 WTS       0.025700
     54 H21         -8.0740     1.2140     2.5900 hc         1 WTS       0.043033
     55 H22         -8.5170     1.5970     0.9290 hc         1 WTS       0.043033
     56 H23         -7.1970     0.4920     1.2530 hc         1 WTS       0.043033
     57 H24         -8.0450     3.6330     3.0160 hc         1 WTS       0.043033
     58 H25         -6.8930     4.7160     2.2510 hc         1 WTS       0.043033
     59 H26         -8.2860     4.1250     1.3430 hc         1 WTS       0.043033
     60 H27         -3.6160     6.7070    -0.1430 hc         1 WTS       0.071700
     61 H28         -5.3640     6.6520     0.0970 hc         1 WTS       0.071700
     62 H29         -4.8900     7.2170    -2.2070 hc         1 WTS       0.048700
     63 H30         -5.6590     5.6500    -2.1660 hc         1 WTS       0.048700
     64 H31         -3.7310     5.7030    -3.7700 hc         1 WTS       0.041033
     65 H32         -2.6360     6.1070    -2.4500 hc         1 WTS       0.041033
     66 H33         -3.4260     4.5330    -2.4980 hc         1 WTS       0.041033
     67 H34         -8.0890     2.7030    -3.6230 hc         1 WTS       0.072200
     68 H35         -7.6270     1.0650    -3.9700 hc         1 WTS       0.072200
     69 H36         -9.0640     1.8630    -1.3850 hc         1 WTS       0.043700
     70 H37         -9.8850     1.4180    -2.8540 hc         1 WTS       0.043700
     71 H38         -9.7770    -0.5340    -1.3710 hc         1 WTS       0.036700
     72 H39         -8.8270    -0.8430    -2.8180 hc         1 WTS       0.036700
     73 H40         -8.0230    -0.4530    -1.3000 hc         1 WTS       0.036700
     74 H41         -5.5720    -2.4180     2.6640 ho         1 WTS       0.415000
     75 H42         -1.6160    -0.2020     6.9120 ho         1 WTS       0.404000
     76 C25         -6.4810     2.0130    -2.4820 c          1 WTS       0.651100
@<TRIPOS>BOND
     1     1     3 1   
     2     1    36 1   
     3     1    37 1   
     4     1    38 1   
     5     2     3 2   
     6     2     9 1   
     7     2    39 1   
     8     3     8 1   
     9     4     5 1   
    10     4     7 2   
    11     4    18 1   
    12     5     6 1   
    13     5    40 1   
    14     5    41 1   
    15     6     8 1   
    16     6     9 1   
    17     6    29 1   
    18     7    13 1   
    19     7    42 1   
    20     8    30 2   
    21     9    12 1   
    22     9    43 1   
    23    10    12 1   
    24    10    44 1   
    25    11    12 1   
    26    11    16 1   
    27    11    17 1   
    28    11    45 1   
    29    12    13 1   
    30    13    14 1   
    31    13    46 1   
    32    14    15 1   
    33    14    19 1   
    34    14    47 1   
    35    15    16 1   
    36    15    19 1   
    37    15    32 1   
    38    16    34 1   
    39    16    48 1   
    40    17    49 1   
    41    17    50 1   
    42    17    51 1   
    43    18    31 1   
    44    18    52 1   
    45    18    53 1   
    46    19    20 1   
    47    19    21 1   
    48    20    54 1   
    49    20    55 1   
    50    20    56 1   
    51    21    57 1   
    52    21    58 1   
    53    21    59 1   
    54    22    23 1   
    55    22    32 1   
    56    22    33 2   
    57    23    24 1   
    58    23    60 1   
    59    23    61 1   
    60    24    25 1   
    61    24    62 1   
    62    24    63 1   
    63    25    64 1   
    64    25    65 1   
    65    25    66 1   
    66    26    27 1   
    67    26    67 1   
    68    26    68 1   
    69    26    76 1   
    70    27    28 1   
    71    27    69 1   
    72    27    70 1   
    73    28    71 1   
    74    28    72 1   
    75    28    73 1   
    76    29    74 1   
    77    31    75 1   
    78    34    76 1   
    79    35    76 2   
@<TRIPOS>SUBSTRUCTURE
     1 WTS         1 TEMP              0 ****  ****    0 ROOT
