@<TRIPOS>MOLECULE
WTV
   89    92     1     0     0
SMALL
abcg2


@<TRIPOS>ATOM
      1 C10        -20.9940     7.5870    31.0160 c3         1 WTV      -0.049100
      2 C13        -21.3900    10.6210    33.2640 ca         1 WTV      -0.146000
      3 C17        -19.3490     9.0470    32.2340 ca         1 WTV      -0.072500
      4 C22        -18.7050     6.1820    35.8920 c3         1 WTV       0.231900
      5 C24        -19.2070     8.5120    36.7110 ca         1 WTV      -0.080500
      6 C26        -17.5990    10.2870    36.4960 ca         1 WTV      -0.095000
      7 C28        -17.0770     8.0790    35.6960 ca         1 WTV      -0.080500
      8 C01        -26.8880     3.9780    29.3000 c3         1 WTV      -0.091100
      9 C03        -25.1690     2.3790    30.1840 c3         1 WTV      -0.091100
     10 C04        -24.4850     4.3770    28.7770 c3         1 WTV      -0.084400
     11 C05        -23.0090     4.3070    29.1600 c3         1 WTV       0.035700
     12 C07        -21.5060     5.1670    30.8460 c          1 WTV       0.588100
     13 C09        -21.2590     6.3010    31.8320 c3         1 WTV       0.052700
     14 C11        -20.6670     8.7570    31.8950 ca         1 WTV      -0.098300
     15 C12        -21.6780     9.5580    32.4200 ca         1 WTV      -0.072500
     16 C14        -20.0680    10.8730    33.5790 ca         1 WTV       0.175000
     17 C16        -19.0370    10.1040    33.0780 ca         1 WTV      -0.146000
     18 C23        -18.3270     7.6200    36.1060 ca         1 WTV      -0.133300
     19 C25        -18.8450     9.8380    36.9080 ca         1 WTV      -0.120000
     20 C27        -16.7130     9.4040    35.8900 ca         1 WTV      -0.120000
     21 C29        -22.1600     4.8560    28.0100 c          1 WTV       0.578100
     22 C32        -20.6640     4.2790    26.1610 c3         1 WTV       0.110700
     23 C33        -19.2700     4.5120    26.7600 c3         1 WTV      -0.098400
     24 C34        -18.3520     5.3230    25.8660 c5         1 WTV       0.164300
     25 C35        -18.8350     6.7480    25.5770 c5         1 WTV      -0.114400
     26 C36        -17.5320     7.5560    25.4550 c5         1 WTV      -0.111400
     27 C37        -16.4450     6.5520    25.8740 c5         1 WTV       0.149600
     28 C39        -20.6520     3.1970    25.0870 c3         1 WTV      -0.072400
     29 C40        -21.9260     3.1230    24.2590 c5         1 WTV      -0.174700
     30 C41        -23.1890     2.5900    24.9280 c5         1 WTV      -0.109400
     31 C42        -23.9520     2.0040    23.7490 c5         1 WTV       0.152600
     32 C44        -21.7830     2.1920    23.0710 c          1 WTV       0.651100
     33 F15        -19.7790    11.9050    34.3890 f          1 WTV      -0.182000
     34 N06        -22.7490     5.0880    30.3470 ns         1 WTV      -0.480900
     35 N18        -20.1500     5.9610    32.6760 ns         1 WTV      -0.490900
     36 N31        -21.6040     3.9330    27.2120 ns         1 WTV      -0.489900
     37 O08        -20.6040     4.4270    30.4860 o          1 WTV      -0.602100
     38 O20        -21.0320     6.7140    34.6340 o          1 WTV      -0.542000
     39 O21        -18.9330     5.8920    34.5110 os         1 WTV      -0.455100
     40 O30        -22.0450     6.0600    27.8350 o          1 WTV      -0.608100
     41 O38        -17.1140     5.4960    26.5290 os         1 WTV      -0.449000
     42 O43        -22.9400     1.5800    22.8220 os         1 WTV      -0.423100
     43 O45        -20.8060     1.9880    22.4030 o          1 WTV      -0.487000
     44 H102       -21.8760     7.8040    30.4100 hc         1 WTV       0.065700
     45 H101       -20.1720     7.3970    30.3200 hc         1 WTV       0.065700
     46 H131       -22.1790    11.2430    33.6650 ha         1 WTV       0.131500
     47 H171       -18.5440     8.4460    31.8290 ha         1 WTV       0.114000
     48 H222       -19.5720     5.9100    36.4950 h1         1 WTV       0.066200
     49 H221       -17.8820     5.5250    36.1740 h1         1 WTV       0.066200
     50 H261       -17.3150    11.3200    36.6490 ha         1 WTV       0.114000
     51 H281       -16.3780     7.3940    35.2310 ha         1 WTV       0.118500
     52 H013       -27.1170     5.0160    29.0500 hc         1 WTV       0.036367
     53 H012       -27.0380     3.3790    28.4000 hc         1 WTV       0.036367
     54 H011       -27.6140     3.6460    30.0440 hc         1 WTV       0.036367
     55 H021       -25.3810     4.4340    30.7330 hc         1 WTV       0.049700
     56 H032       -24.1970     2.2570    30.6640 hc         1 WTV       0.036367
     57 H033       -25.9200     1.9940    30.8760 hc         1 WTV       0.036367
     58 H031       -25.1830     1.7460    29.2930 hc         1 WTV       0.036367
     59 H042       -24.6150     3.8130    27.8470 hc         1 WTV       0.054700
     60 H041       -24.7410     5.4160    28.5480 hc         1 WTV       0.054700
     61 H051       -22.7340     3.2660    29.3510 h1         1 WTV       0.077700
     62 H091       -22.1380     6.4550    32.4610 h1         1 WTV       0.092700
     63 H121       -22.7110     9.3530    32.1660 ha         1 WTV       0.114000
     64 H161       -18.0110    10.3230    33.3410 ha         1 WTV       0.131500
     65 H251       -19.5390    10.5200    37.3810 ha         1 WTV       0.114500
     66 H271       -15.7380     9.7470    35.5700 ha         1 WTV       0.114500
     67 H321       -21.0200     5.2090    25.7100 h1         1 WTV       0.076700
     68 H331       -18.8140     3.5440    26.9910 hc         1 WTV       0.068700
     69 H332       -19.3740     5.0510    27.7060 hc         1 WTV       0.068700
     70 H341       -18.1830     4.8010    24.9100 h1         1 WTV       0.035700
     71 H352       -19.4470     6.7950    24.6760 hc         1 WTV       0.057700
     72 H351       -19.4460     7.1130    26.4060 hc         1 WTV       0.057700
     73 H361       -17.3630     7.9180    24.4410 hc         1 WTV       0.050700
     74 H362       -17.5470     8.4260    26.1100 hc         1 WTV       0.050700
     75 H372       -15.9090     6.1810    24.9910 h1         1 WTV       0.044700
     76 H371       -15.7080     6.9730    26.5580 h1         1 WTV       0.044700
     77 H1         -19.8170     3.3960    24.4120 hc         1 WTV       0.065700
     78 H391       -20.4450     2.2240    25.5460 hc         1 WTV       0.065700
     79 H2         -22.1320     4.1180    23.8380 hc         1 WTV       0.083700
     80 H411       -22.9400     1.8080    25.6500 hc         1 WTV       0.063700
     81 H412       -23.7660     3.3530    25.4450 hc         1 WTV       0.063700
     82 H422       -24.5610     1.1390    24.0050 h1         1 WTV       0.064200
     83 H421       -24.5840     2.7470    23.2590 h1         1 WTV       0.064200
     84 H061       -23.4290     5.7840    30.6150 hn         1 WTV       0.324500
     85 H181       -19.3220     5.5950    32.2320 hn         1 WTV       0.345500
     86 H311       -21.6400     2.9680    27.5040 hn         1 WTV       0.314500
     87 C19        -20.1180     6.2410    33.9930 c          1 WTV       0.647100
     88 C02        -25.4620     3.8300    29.8220 c3         1 WTV      -0.059700
     89 H241       -20.1820     8.1660    37.0320 ha         1 WTV       0.118500
@<TRIPOS>BOND
     1     1    13 1   
     2     1    14 1   
     3     1    44 1   
     4     1    45 1   
     5     2    15 ar  
     6     2    16 ar  
     7     2    46 1   
     8     3    14 ar  
     9     3    17 ar  
    10     3    47 1   
    11     4    18 1   
    12     4    39 1   
    13     4    48 1   
    14     4    49 1   
    15     5    18 ar  
    16     5    19 ar  
    17     5    89 1   
    18     6    19 ar  
    19     6    20 ar  
    20     6    50 1   
    21     7    18 ar  
    22     7    20 ar  
    23     7    51 1   
    24     8    52 1   
    25     8    53 1   
    26     8    54 1   
    27     8    88 1   
    28     9    56 1   
    29     9    57 1   
    30     9    58 1   
    31     9    88 1   
    32    10    11 1   
    33    10    59 1   
    34    10    60 1   
    35    10    88 1   
    36    11    21 1   
    37    11    34 1   
    38    11    61 1   
    39    12    13 1   
    40    12    34 1   
    41    12    37 2   
    42    13    35 1   
    43    13    62 1   
    44    14    15 ar  
    45    15    63 1   
    46    16    17 ar  
    47    16    33 1   
    48    17    64 1   
    49    19    65 1   
    50    20    66 1   
    51    21    36 1   
    52    21    40 2   
    53    22    23 1   
    54    22    28 1   
    55    22    36 1   
    56    22    67 1   
    57    23    24 1   
    58    23    68 1   
    59    23    69 1   
    60    24    25 1   
    61    24    41 1   
    62    24    70 1   
    63    25    26 1   
    64    25    71 1   
    65    25    72 1   
    66    26    27 1   
    67    26    73 1   
    68    26    74 1   
    69    27    41 1   
    70    27    75 1   
    71    27    76 1   
    72    28    29 1   
    73    28    77 1   
    74    28    78 1   
    75    29    30 1   
    76    29    32 1   
    77    29    79 1   
    78    30    31 1   
    79    30    80 1   
    80    30    81 1   
    81    31    42 1   
    82    31    82 1   
    83    31    83 1   
    84    32    42 1   
    85    32    43 2   
    86    34    84 1   
    87    35    85 1   
    88    35    87 1   
    89    36    86 1   
    90    38    87 2   
    91    39    87 1   
    92    55    88 1   
@<TRIPOS>SUBSTRUCTURE
     1 WTV         1 TEMP              0 ****  ****    0 ROOT
