@<TRIPOS>MOLECULE
WTV
   89    92     1     0     0
SMALL
No Charge or Current Charge


@<TRIPOS>ATOM
      1 C10        -19.9570     7.5940    31.6930 c3         1 WTV      -0.049100
      2 C13        -20.8780    10.9890    33.2270 ca         1 WTV      -0.146000
      3 C17        -18.8470     9.0580    33.4580 ca         1 WTV      -0.072500
      4 C22        -20.9940     6.6930    37.1290 c3         1 WTV       0.231900
      5 C24        -21.0490     9.2290    37.3970 ca         1 WTV      -0.080500
      6 C26        -19.0120    10.5070    37.7840 ca         1 WTV      -0.095000
      7 C28        -18.9030     8.0890    37.5180 ca         1 WTV      -0.080500
      8 C01        -25.1140     2.8120    30.1800 c3         1 WTV      -0.091100
      9 C03        -22.8170     1.7820    30.5270 c3         1 WTV      -0.091100
     10 C04        -23.1020     3.8310    28.9850 c3         1 WTV      -0.084400
     11 C05        -21.6500     4.3880    29.0350 c3         1 WTV       0.035700
     12 C07        -20.9510     5.2580    31.3230 c          1 WTV       0.588100
     13 C09        -20.9470     6.5240    32.2270 c3         1 WTV       0.052700
     14 C11        -19.9050     8.8560    32.5480 ca         1 WTV      -0.098300
     15 C12        -20.9210     9.8270    32.4360 ca         1 WTV      -0.072500
     16 C14        -19.8200    11.1830    34.1280 ca         1 WTV       0.175000
     17 C16        -18.8050    10.2220    34.2450 ca         1 WTV      -0.146000
     18 C23        -20.3010     8.0350    37.3500 ca         1 WTV      -0.133300
     19 C25        -20.4060    10.4600    37.6130 ca         1 WTV      -0.120000
     20 C27        -18.2610     9.3210    37.7350 ca         1 WTV      -0.120000
     21 C29        -21.2130     4.9640    27.6550 c          1 WTV       0.578100
     22 C32        -20.5980     4.3250    25.2920 c3         1 WTV       0.110700
     23 C33        -19.0540     4.1850    25.2450 c3         1 WTV      -0.098400
     24 C34        -18.3770     4.6530    23.9350 c5         1 WTV       0.164300
     25 C35        -18.5950     6.1350    23.5570 c5         1 WTV      -0.114400
     26 C36        -17.4730     6.3230    22.4990 c5         1 WTV      -0.111400
     27 C37        -16.3780     5.3120    22.9620 c5         1 WTV       0.149600
     28 C39        -21.3360     3.4400    24.2510 c3         1 WTV      -0.072400
     29 C40        -22.8460     3.7620    24.0400 c5         1 WTV      -0.174700
     30 C41        -23.8100     3.5140    25.2260 c5         1 WTV      -0.109400
     31 C42        -25.1500     3.5460    24.4430 c5         1 WTV       0.152600
     32 C44        -23.5180     2.9220    22.9400 c          1 WTV       0.651100
     33 F15        -19.7760    12.3040    34.8810 f          1 WTV      -0.182000
     34 N06        -21.5200     5.4330    30.0780 ns         1 WTV      -0.480900
     35 N18        -20.6330     6.1580    33.6260 ns         1 WTV      -0.490900
     36 N31        -21.0590     4.0280    26.6520 ns         1 WTV      -0.489900
     37 O08        -20.4840     4.1820    31.6780 o          1 WTV      -0.602100
     38 O20        -22.0570     7.5890    34.7200 o          1 WTV      -0.542000
     39 O21        -20.6250     6.1730    35.8390 os         1 WTV      -0.455100
     40 O30        -21.0070     6.1570    27.4630 o          1 WTV      -0.608100
     41 O38        -16.9510     4.6060    24.0830 os         1 WTV      -0.449000
     42 O43        -24.8590     2.8670    23.1980 os         1 WTV      -0.423100
     43 O45        -22.9790     2.2690    22.0590 o          1 WTV      -0.487000
     44 H102       -20.2330     7.8620    30.6660 hc         1 WTV       0.065700
     45 H101       -18.9580     7.1450    31.6240 hc         1 WTV       0.065700
     46 H131       -21.6610    11.7380    33.1420 ha         1 WTV       0.131500
     47 H171       -18.0610     8.3140    33.5580 ha         1 WTV       0.114000
     48 H222       -22.0840     6.7980    37.2190 h1         1 WTV       0.066200
     49 H221       -20.6700     6.0000    37.9170 h1         1 WTV       0.066200
     50 H261       -18.5150    11.4610    37.9490 ha         1 WTV       0.114000
     51 H281       -18.3140     7.1750    37.4810 ha         1 WTV       0.118500
     52 H013       -25.6760     3.7450    30.0540 hc         1 WTV       0.036367
     53 H012       -25.3460     2.1540    29.3330 hc         1 WTV       0.036367
     54 H011       -25.4690     2.3280    31.0980 hc         1 WTV       0.036367
     55 H021       -23.4420     3.7530    31.1230 hc         1 WTV       0.049700
     56 H032       -21.7490     1.9720    30.6710 hc         1 WTV       0.036367
     57 H033       -23.1900     1.2900    31.4330 hc         1 WTV       0.036367
     58 H031       -22.9310     1.0840    29.6890 hc         1 WTV       0.036367
     59 H042       -23.1930     3.1380    28.1410 hc         1 WTV       0.054700
     60 H041       -23.7800     4.6660    28.7690 hc         1 WTV       0.054700
     61 H051       -20.9550     3.5680    29.2540 h1         1 WTV       0.077700
     62 H091       -21.9640     6.9370    32.1920 h1         1 WTV       0.092700
     63 H121       -21.7440     9.6800    31.7400 ha         1 WTV       0.114000
     64 H161       -17.9890    10.3790    34.9450 ha         1 WTV       0.131500
     65 H251       -20.9880    11.3790    37.6460 ha         1 WTV       0.114500
     66 H271       -17.1810     9.3550    37.8640 ha         1 WTV       0.114500
     67 H321       -20.8460     5.3710    25.0680 h1         1 WTV       0.076700
     68 H331       -18.7890     3.1380    25.4330 hc         1 WTV       0.068700
     69 H332       -18.6320     4.7610    26.0780 hc         1 WTV       0.068700
     70 H341       -18.6620     3.9860    23.1100 h1         1 WTV       0.035700
     71 H352       -19.5940     6.3290    23.1500 hc         1 WTV       0.057700
     72 H351       -18.4510     6.7950    24.4220 hc         1 WTV       0.057700
     73 H361       -17.8270     6.0730    21.4920 hc         1 WTV       0.050700
     74 H362       -17.1010     7.3530    22.4660 hc         1 WTV       0.050700
     75 H372       -16.1340     4.5930    22.1680 h1         1 WTV       0.044700
     76 H371       -15.4530     5.8100    23.2830 h1         1 WTV       0.044700
     77 H1         -20.8370     3.5570    23.2820 hc         1 WTV       0.065700
     78 H391       -21.2100     2.3850    24.5240 hc         1 WTV       0.065700
     79 H2         -22.9450     4.8130    23.7420 hc         1 WTV       0.083700
     80 H411       -23.6470     2.5400    25.7020 hc         1 WTV       0.063700
     81 H412       -23.7620     4.2920    25.9960 hc         1 WTV       0.063700
     82 H422       -25.9720     3.0420    24.9690 h1         1 WTV       0.064200
     83 H421       -25.4560     4.5770    24.2180 h1         1 WTV       0.064200
     84 H061       -21.8440     6.3660    29.8510 hn         1 WTV       0.324500
     85 H181       -19.9580     5.4240    33.8010 hn         1 WTV       0.345500
     86 H311       -21.2450     3.0620    26.8940 hn         1 WTV       0.314500
     87 C19        -21.1700     6.7500    34.7330 c          1 WTV       0.647100
     88 C02        -23.5960     3.0930    30.2610 c3         1 WTV      -0.059700
     89 H241       -22.1290     9.2050    37.2640 ha         1 WTV       0.118500
@<TRIPOS>BOND
     1     1    13 1   
     2     1    14 1   
     3     1    44 1   
     4     1    45 1   
     5     2    15 ar  
     6     2    16 ar  
     7     2    46 1   
     8     3    14 ar  
     9     3    17 ar  
    10     3    47 1   
    11     4    18 1   
    12     4    39 1   
    13     4    48 1   
    14     4    49 1   
    15     5    18 ar  
    16     5    19 ar  
    17     5    89 1   
    18     6    19 ar  
    19     6    20 ar  
    20     6    50 1   
    21     7    18 ar  
    22     7    20 ar  
    23     7    51 1   
    24     8    52 1   
    25     8    53 1   
    26     8    54 1   
    27     8    88 1   
    28     9    56 1   
    29     9    57 1   
    30     9    58 1   
    31     9    88 1   
    32    10    11 1   
    33    10    59 1   
    34    10    60 1   
    35    10    88 1   
    36    11    21 1   
    37    11    34 1   
    38    11    61 1   
    39    12    13 1   
    40    12    34 1   
    41    12    37 2   
    42    13    35 1   
    43    13    62 1   
    44    14    15 ar  
    45    15    63 1   
    46    16    17 ar  
    47    16    33 1   
    48    17    64 1   
    49    19    65 1   
    50    20    66 1   
    51    21    36 1   
    52    21    40 2   
    53    22    23 1   
    54    22    28 1   
    55    22    36 1   
    56    22    67 1   
    57    23    24 1   
    58    23    68 1   
    59    23    69 1   
    60    24    25 1   
    61    24    41 1   
    62    24    70 1   
    63    25    26 1   
    64    25    71 1   
    65    25    72 1   
    66    26    27 1   
    67    26    73 1   
    68    26    74 1   
    69    27    41 1   
    70    27    75 1   
    71    27    76 1   
    72    28    29 1   
    73    28    77 1   
    74    28    78 1   
    75    29    30 1   
    76    29    32 1   
    77    29    79 1   
    78    30    31 1   
    79    30    80 1   
    80    30    81 1   
    81    31    42 1   
    82    31    82 1   
    83    31    83 1   
    84    32    42 1   
    85    32    43 2   
    86    34    84 1   
    87    35    85 1   
    88    35    87 1   
    89    36    86 1   
    90    38    87 2   
    91    39    87 1   
    92    55    88 1   
@<TRIPOS>SUBSTRUCTURE
     1 WTV         1 TEMP              0 ****  ****    0 ROOT
