@<TRIPOS>MOLECULE
WTZ
   18    17     1     0     0
SMALL
abcg2


@<TRIPOS>ATOM
      1 CA1         -1.2520     0.2850     0.1050 c          1 WTZ       0.707000
      2 OA1         -1.5740     1.1630    -0.7080 o          1 WTZ      -0.718000
      3 CA2          0.0580    -0.5120    -0.1350 c3         1 WTZ       0.004000
      4 OA2         -1.8750    -0.0500     1.1410 o          1 WTZ      -0.718000
      5 C3           1.2260     0.2600     0.5320 c3         1 WTZ       0.162300
      6 OA3         -0.0620    -1.7590     0.5220 oh         1 WTZ      -0.706000
      7 CA5          2.5780    -0.4070     0.3150 c3         1 WTZ      -0.114100
      8 OA4          1.2660     1.6230     0.1610 oh         1 WTZ      -0.657000
      9 CA3          0.2960    -0.7620    -1.6170 c3         1 WTZ      -0.057100
     10 HA4          1.3420     1.6780    -0.7970 ho         1 WTZ       0.433000
     11 H3           1.0130     0.2670     1.6070 h1         1 WTZ       0.068700
     12 HA51         2.8970    -0.3430    -0.7280 hc         1 WTZ       0.022367
     13 HA52         3.3430     0.0780     0.9230 hc         1 WTZ       0.022367
     14 HA53         2.5510    -1.4610     0.5910 hc         1 WTZ       0.022367
     15 HA31        -0.5950    -1.1760    -2.0920 hc         1 WTZ       0.018700
     16 HA32         0.5490     0.1520    -2.1550 hc         1 WTZ       0.018700
     17 HA33         1.1120    -1.4690    -1.7730 hc         1 WTZ       0.018700
     18 HA3         -0.7730    -1.5930     1.1650 ho         1 WTZ       0.473000
@<TRIPOS>BOND
     1     1     2 1   
     2     1     3 1   
     3     1     4 1   
     4     3     5 1   
     5     3     6 1   
     6     3     9 1   
     7     5     7 1   
     8     5     8 1   
     9     5    11 1   
    10     6    18 1   
    11     7    12 1   
    12     7    13 1   
    13     7    14 1   
    14     8    10 1   
    15     9    15 1   
    16     9    16 1   
    17     9    17 1   
@<TRIPOS>SUBSTRUCTURE
     1 WTZ         1 TEMP              0 ****  ****    0 ROOT
