@<TRIPOS>MOLECULE
WTZ
   18    17     1     0     0
SMALL
No Charge or Current Charge


@<TRIPOS>ATOM
      1 CA1         -1.2900     0.3100     0.1850 c          1 WTZ       0.707000
      2 OA1         -1.8040     1.0220    -0.6690 o          1 WTZ      -0.718000
      3 CA2          0.0410    -0.4860    -0.1410 c3         1 WTZ       0.004000
      4 OA2         -1.8720    -0.0010     1.2190 o          1 WTZ      -0.718000
      5 C3           1.2380     0.2810     0.5330 c3         1 WTZ       0.162300
      6 OA3         -0.0440    -1.8220     0.4360 oh         1 WTZ      -0.706000
      7 CA5          2.6170    -0.4150     0.4180 c3         1 WTZ      -0.114100
      8 OA4          1.3680     1.6050    -0.0020 oh         1 WTZ      -0.657000
      9 CA3          0.2340    -0.6750    -1.6770 c3         1 WTZ      -0.057100
     10 HA4          1.6340     1.5050    -0.9410 ho         1 WTZ       0.433000
     11 H3           1.0070     0.3540     1.6060 h1         1 WTZ       0.068700
     12 HA51         2.9420    -0.4940    -0.6260 hc         1 WTZ       0.022367
     13 HA52         3.3780     0.1550     0.9650 hc         1 WTZ       0.022367
     14 HA53         2.5880    -1.4230     0.8470 hc         1 WTZ       0.022367
     15 HA31        -0.6390    -1.1740    -2.1150 hc         1 WTZ       0.018700
     16 HA32         0.3610     0.2860    -2.1890 hc         1 WTZ       0.018700
     17 HA33         1.1120    -1.2940    -1.8970 hc         1 WTZ       0.018700
     18 HA3         -0.7710    -1.7600     1.1040 ho         1 WTZ       0.473000
@<TRIPOS>BOND
     1     1     2 1   
     2     1     3 1   
     3     1     4 1   
     4     3     5 1   
     5     3     6 1   
     6     3     9 1   
     7     5     7 1   
     8     5     8 1   
     9     5    11 1   
    10     6    18 1   
    11     7    12 1   
    12     7    13 1   
    13     7    14 1   
    14     8    10 1   
    15     9    15 1   
    16     9    16 1   
    17     9    17 1   
@<TRIPOS>SUBSTRUCTURE
     1 WTZ         1 TEMP              0 ****  ****    0 ROOT
