@<TRIPOS>MOLECULE
WU0
   36    38     1     0     0
SMALL
abcg2


@<TRIPOS>ATOM
      1 C33         -3.0710    14.2610    -2.4000 ca         1 WU0      -0.105000
      2 C28         -2.9880    15.4880    -1.7360 cp         1 WU0      -0.007000
      3 C10         -2.3280    15.5810    -0.4150 cp         1 WU0      -0.072500
      4 C15         -1.5720    16.7040    -0.0600 ca         1 WU0      -0.126250
      5 C14         -0.9410    16.7790     1.1740 ca         1 WU0      -0.096000
      6 C13         -1.0430    15.7400     2.1000 ca         1 WU0      -0.124600
      7 C12         -1.8020    14.6230     1.7510 ca         1 WU0      -0.096000
      8 C11         -2.4340    14.5420     0.5180 ca         1 WU0      -0.126250
      9 C32         -3.6870    14.1340    -3.6470 cp         1 WU0      -0.007000
     10 C22         -3.7330    12.8240    -4.3340 cp         1 WU0      -0.072500
     11 C27         -2.6710    11.9180    -4.2280 ca         1 WU0      -0.126250
     12 C26         -2.7100    10.6930    -4.8790 ca         1 WU0      -0.096000
     13 C25         -3.8090    10.3250    -5.6560 ca         1 WU0      -0.124600
     14 C24         -4.8710    11.2240    -5.7590 ca         1 WU0      -0.096000
     15 C23         -4.8350    12.4530    -5.1140 ca         1 WU0      -0.126250
     16 C31         -4.2410    15.2780    -4.2350 ca         1 WU0      -0.125000
     17 C30         -4.1670    16.5050    -3.5870 ca         1 WU0      -0.126000
     18 C29         -3.5440    16.6160    -2.3500 ca         1 WU0      -0.125000
     19 C3T         -0.3390    15.8180     3.4520 c          1 WU0       0.705600
     20 O2T          0.3030    16.8700     3.7020 o          1 WU0      -0.729250
     21 C3U         -3.8450     8.9790    -6.3760 c          1 WU0       0.705600
     22 O2U         -2.8370     8.2370    -6.2510 o          1 WU0      -0.729250
     23 H1          -2.6420    13.3840    -1.9350 ha         1 WU0       0.122000
     24 H2          -1.4580    17.5170    -0.7670 ha         1 WU0       0.091500
     25 H3          -0.3510    17.6490     1.4320 ha         1 WU0       0.124500
     26 H4          -1.8980    13.8140     2.4620 ha         1 WU0       0.124500
     27 H5          -3.0300    13.6700     0.2810 ha         1 WU0       0.091500
     28 H6          -1.7970    12.1840    -3.6480 ha         1 WU0       0.091500
     29 H7          -1.8780    10.0080    -4.7950 ha         1 WU0       0.124500
     30 H8          -5.7320    10.9460    -6.3510 ha         1 WU0       0.124500
     31 H9          -5.6800    13.1240    -5.1990 ha         1 WU0       0.091500
     32 H10         -4.7090    15.2110    -5.2080 ha         1 WU0       0.104000
     33 H11         -4.5970    17.3830    -4.0520 ha         1 WU0       0.089000
     34 H12         -3.5060    17.5750    -1.8510 ha         1 WU0       0.104000
     35 O2          -4.8800     8.7140    -7.0410 o          1 WU0      -0.729250
     36 O1          -0.4540    14.8240     4.2140 o          1 WU0      -0.729250
@<TRIPOS>BOND
     1     1     2 ar  
     2     1     9 ar  
     3     1    23 1   
     4     2     3 1   
     5     2    18 ar  
     6     3     4 ar  
     7     3     8 ar  
     8     4     5 ar  
     9     4    24 1   
    10     5     6 ar  
    11     5    25 1   
    12     6     7 ar  
    13     6    19 1   
    14     7     8 ar  
    15     7    26 1   
    16     8    27 1   
    17     9    10 1   
    18     9    16 ar  
    19    10    11 ar  
    20    10    15 ar  
    21    11    12 ar  
    22    11    28 1   
    23    12    13 ar  
    24    12    29 1   
    25    13    14 ar  
    26    13    21 1   
    27    14    15 ar  
    28    14    30 1   
    29    15    31 1   
    30    16    17 ar  
    31    16    32 1   
    32    17    18 ar  
    33    17    33 1   
    34    18    34 1   
    35    19    20 1   
    36    19    36 1   
    37    21    22 1   
    38    21    35 1   
@<TRIPOS>SUBSTRUCTURE
     1 WU0         1 TEMP              0 ****  ****    0 ROOT
