@<TRIPOS>MOLECULE
WU0
   36    38     1     0     0
SMALL
No Charge or Current Charge


@<TRIPOS>ATOM
      1 C33         -3.0400    14.2490    -2.4090 ca         1 WU0      -0.105000
      2 C28         -2.9630    15.4860    -1.7200 cp         1 WU0      -0.007000
      3 C10         -2.2960    15.5900    -0.3810 cp         1 WU0      -0.072500
      4 C15         -1.5760    16.7510    -0.0080 ca         1 WU0      -0.126250
      5 C14         -0.9490    16.8520     1.2460 ca         1 WU0      -0.096000
      6 C13         -1.0200    15.7920     2.1780 ca         1 WU0      -0.124600
      7 C12         -1.7380    14.6290     1.8140 ca         1 WU0      -0.096000
      8 C11         -2.3630    14.5320     0.5580 ca         1 WU0      -0.126250
      9 C32         -3.6670    14.1180    -3.6740 cp         1 WU0      -0.007000
     10 C22         -3.7280    12.7960    -4.3780 cp         1 WU0      -0.072500
     11 C27         -2.6700    11.8600    -4.2790 ca         1 WU0      -0.126250
     12 C26         -2.7260    10.6210    -4.9400 ca         1 WU0      -0.096000
     13 C25         -3.8470    10.2690    -5.7260 ca         1 WU0      -0.124600
     14 C24         -4.9080    11.1980    -5.8290 ca         1 WU0      -0.096000
     15 C23         -4.8470    12.4370    -5.1680 ca         1 WU0      -0.126250
     16 C31         -4.2320    15.2820    -4.2500 ca         1 WU0      -0.125000
     17 C30         -4.1690    16.5200    -3.5910 ca         1 WU0      -0.126000
     18 C29         -3.5410    16.6200    -2.3400 ca         1 WU0      -0.125000
     19 C3T         -0.3430    15.8990     3.5380 c          1 WU0       0.705600
     20 O2T          0.2660    16.9240     3.8110 o          1 WU0      -0.729250
     21 C3U         -3.9100     8.9270    -6.4420 c          1 WU0       0.705600
     22 O2U         -2.9700     8.1530    -6.3240 o          1 WU0      -0.729250
     23 H1          -2.6020    13.3680    -1.9500 ha         1 WU0       0.122000
     24 H2          -1.4880    17.5820    -0.7040 ha         1 WU0       0.091500
     25 H3          -0.4030    17.7610     1.4890 ha         1 WU0       0.124500
     26 H4          -1.8180    13.7940     2.5070 ha         1 WU0       0.124500
     27 H5          -2.9170    13.6290     0.3200 ha         1 WU0       0.091500
     28 H6          -1.7850    12.1010    -3.6960 ha         1 WU0       0.091500
     29 H7          -1.8890     9.9330    -4.8400 ha         1 WU0       0.124500
     30 H8          -5.7880    10.9620    -6.4230 ha         1 WU0       0.124500
     31 H9          -5.6870    13.1200    -5.2610 ha         1 WU0       0.091500
     32 H10         -4.7110    15.2290    -5.2240 ha         1 WU0       0.104000
     33 H11         -4.6080    17.4020    -4.0510 ha         1 WU0       0.089000
     34 H12         -3.5150    17.5860    -1.8410 ha         1 WU0       0.104000
     35 O2          -4.8990     8.6660    -7.1130 o          1 WU0      -0.729250
     36 O1          -0.4300    14.9570     4.3130 o          1 WU0      -0.729250
@<TRIPOS>BOND
     1     1     2 ar  
     2     1     9 ar  
     3     1    23 1   
     4     2     3 1   
     5     2    18 ar  
     6     3     4 ar  
     7     3     8 ar  
     8     4     5 ar  
     9     4    24 1   
    10     5     6 ar  
    11     5    25 1   
    12     6     7 ar  
    13     6    19 1   
    14     7     8 ar  
    15     7    26 1   
    16     8    27 1   
    17     9    10 1   
    18     9    16 ar  
    19    10    11 ar  
    20    10    15 ar  
    21    11    12 ar  
    22    11    28 1   
    23    12    13 ar  
    24    12    29 1   
    25    13    14 ar  
    26    13    21 1   
    27    14    15 ar  
    28    14    30 1   
    29    15    31 1   
    30    16    17 ar  
    31    16    32 1   
    32    17    18 ar  
    33    17    33 1   
    34    18    34 1   
    35    19    20 1   
    36    19    36 1   
    37    21    22 1   
    38    21    35 1   
@<TRIPOS>SUBSTRUCTURE
     1 WU0         1 TEMP              0 ****  ****    0 ROOT
