@<TRIPOS>MOLECULE
WU1
   65    69     1     0     0
SMALL
No Charge or Current Charge


@<TRIPOS>ATOM
      1 C10         12.7940    21.8340    -3.8450 c3         1 WU1      -0.020100
      2 C13         15.1870    20.5690    -1.1200 ca         1 WU1       0.077000
      3 C15         15.5470    21.7680    -0.4670 ca         1 WU1       0.142100
      4 C17         16.7760    22.8690     1.3740 c3         1 WU1       0.146900
      5 C20         10.7730    19.7830    -1.5860 cc         1 WU1       0.016900
      6 C22         11.0790    20.4520     0.8090 c6         1 WU1       0.192500
      7 C24         10.6910    20.4010     3.3330 c6         1 WU1      -0.071400
      8 C26         12.7920    21.5110     2.3790 c6         1 WU1      -0.071400
      9 C02         11.1590    13.6060    -3.6260 cc         1 WU1       0.208300
     10 C03         11.0490    14.2250    -2.3990 cd         1 WU1      -0.185000
     11 C04         10.9400    15.6660    -2.1550 cd         1 WU1       0.015000
     12 C05         11.2690    16.5760    -3.1450 cc         1 WU1      -0.078000
     13 C06         11.1810    17.9660    -2.8650 cc         1 WU1      -0.073000
     14 C08         11.1550    20.1300    -2.8720 cd         1 WU1       0.039400
     15 C09         11.3340    21.5200    -3.4400 c3         1 WU1       0.007800
     16 C11         13.7620    21.8120    -2.6660 ca         1 WU1      -0.106300
     17 C12         14.3060    20.5940    -2.2140 ca         1 WU1      -0.058000
     18 C18         15.0100    22.9920    -0.9270 ca         1 WU1      -0.196000
     19 C19         14.1210    23.0090    -2.0180 ca         1 WU1      -0.074000
     20 C23         10.0180    20.4900     1.9390 c6         1 WU1      -0.088900
     21 C25         11.7450    21.5220     3.5210 c6         1 WU1      -0.076400
     22 C27         12.1030    21.5960     0.9960 c6         1 WU1      -0.088900
     23 C29         10.3550    17.5710    -0.6190 cc         1 WU1      -0.090000
     24 C30         10.4630    16.2070    -0.8920 cd         1 WU1      -0.149000
     25 C31         11.0520    13.1610    -1.4480 cd         1 WU1       0.294300
     26 C32         11.0460    13.2090     0.0580 c3         1 WU1      -0.134400
     27 N07         11.4090    19.0010    -3.6510 nd         1 WU1      -0.294600
     28 N21         10.4320    20.5930    -0.5050 nu         1 WU1      -0.771200
     29 N28         10.8450    18.4080    -1.6230 na         1 WU1       0.127100
     30 N33         11.1540    11.9760    -2.0190 nc         1 WU1      -0.365300
     31 O34         11.2200    12.2490    -3.4240 os         1 WU1      -0.071700
     32 Cl14        15.8170    19.0150    -0.5690 cl         1 WU1      -0.191000
     33 H1          13.1170    21.1180    -4.6110 hc         1 WU1       0.058200
     34 H2          12.8160    22.8180    -4.3310 hc         1 WU1       0.058200
     35 H3          17.4520    22.5910     2.1920 h1         1 WU1       0.042367
     36 H4          17.2940    23.5990     0.7390 h1         1 WU1       0.042367
     37 H5          15.8910    23.3470     1.8120 h1         1 WU1       0.042367
     38 H6          11.6240    19.4980     0.8700 h1         1 WU1       0.059700
     39 H7           9.9280    20.4700     4.1210 hc         1 WU1       0.042200
     40 H8          11.1710    19.4190     3.4490 hc         1 WU1       0.042200
     41 H9          13.3950    20.5940     2.4360 hc         1 WU1       0.042200
     42 H10         13.4890    22.3510     2.5010 hc         1 WU1       0.042200
     43 H11         10.8780    13.2150    -5.7250 hc         1 WU1       0.066700
     44 H12         10.3080    14.8020    -5.2110 hc         1 WU1       0.066700
     45 H13         12.0580    14.4820    -5.3830 hc         1 WU1       0.066700
     46 H14         11.6350    16.3030    -4.1210 ha         1 WU1       0.142000
     47 H15         11.0000    22.2740    -2.7180 hc         1 WU1       0.047700
     48 H16         10.6920    21.6360    -4.3210 hc         1 WU1       0.047700
     49 H17         14.0410    19.6610    -2.7040 ha         1 WU1       0.143000
     50 H18         15.2610    23.9350    -0.4510 ha         1 WU1       0.118000
     51 H19         13.7090    23.9570    -2.3570 ha         1 WU1       0.112000
     52 H20          9.4320    21.4170     1.8730 hc         1 WU1       0.045200
     53 H21          9.3060    19.6630     1.8200 hc         1 WU1       0.045200
     54 H22         12.2480    21.4020     4.4900 hc         1 WU1       0.039200
     55 H23         11.2420    22.4990     3.5510 hc         1 WU1       0.039200
     56 H24         12.8580    21.5410     0.2050 hc         1 WU1       0.045200
     57 H25         11.6080    22.5720     0.8900 hc         1 WU1       0.045200
     58 H26          9.9570    18.0090     0.2840 h4         1 WU1       0.156000
     59 H27         10.1020    15.5470    -0.1190 ha         1 WU1       0.132000
     60 H28         11.4160    12.2700     0.4880 hc         1 WU1       0.057367
     61 H29         11.6980    14.0060     0.4330 hc         1 WU1       0.057367
     62 H30         10.0330    13.3630     0.4450 hc         1 WU1       0.057367
     63 H31         10.1850    21.5490    -0.7680 hn         1 WU1       0.455000
     64 O16         16.4060    21.7040     0.6160 os         1 WU1      -0.325100
     65 C01         11.1000    14.0590    -5.0610 c3         1 WU1      -0.142400
@<TRIPOS>BOND
     1     1    15 1   
     2     1    16 1   
     3     1    33 1   
     4     1    34 1   
     5     2     3 ar  
     6     2    17 ar  
     7     2    32 1   
     8     3    18 ar  
     9     3    64 1   
    10     4    35 1   
    11     4    36 1   
    12     4    37 1   
    13     4    64 1   
    14     5    14 2   
    15     5    28 1   
    16     5    29 1   
    17     6    20 1   
    18     6    22 1   
    19     6    28 1   
    20     6    38 1   
    21     7    20 1   
    22     7    21 1   
    23     7    39 1   
    24     7    40 1   
    25     8    21 1   
    26     8    22 1   
    27     8    41 1   
    28     8    42 1   
    29     9    10 2   
    30     9    31 1   
    31     9    65 1   
    32    10    11 1   
    33    10    25 1   
    34    11    12 2   
    35    11    24 1   
    36    12    13 1   
    37    12    46 1   
    38    13    27 2   
    39    13    29 1   
    40    14    15 1   
    41    14    27 1   
    42    15    47 1   
    43    15    48 1   
    44    16    17 ar  
    45    16    19 ar  
    46    17    49 1   
    47    18    19 ar  
    48    18    50 1   
    49    19    51 1   
    50    20    52 1   
    51    20    53 1   
    52    21    54 1   
    53    21    55 1   
    54    22    56 1   
    55    22    57 1   
    56    23    24 2   
    57    23    29 1   
    58    23    58 1   
    59    24    59 1   
    60    25    26 1   
    61    25    30 2   
    62    26    60 1   
    63    26    61 1   
    64    26    62 1   
    65    28    63 1   
    66    30    31 1   
    67    43    65 1   
    68    44    65 1   
    69    45    65 1   
@<TRIPOS>SUBSTRUCTURE
     1 WU1         1 TEMP              0 ****  ****    0 ROOT
