@<TRIPOS>MOLECULE
WU1
   65    69     1     0     0
SMALL
bcc


@<TRIPOS>ATOM
      1 C10         13.0000    21.7420    -3.6760 c3         1 WU1      -0.020100
      2 C13         15.1560    20.5050    -0.8160 ca         1 WU1      -0.014600
      3 C15         15.5360    21.6870    -0.1750 ca         1 WU1       0.142100
      4 C17         16.6420    22.7490     1.6260 c3         1 WU1       0.123700
      5 C20         10.6880    19.7360    -1.5970 cc         1 WU1       0.016900
      6 C22         10.8920    20.4650     0.7220 c6         1 WU1       0.192500
      7 C24         10.7330    20.6110     3.2310 c6         1 WU1      -0.071400
      8 C26         12.6880    21.6510     2.0340 c6         1 WU1      -0.071400
      9 C02         10.8010    13.5740    -3.6370 cc         1 WU1       0.318000
     10 C03         11.0660    14.2480    -2.4850 cd         1 WU1      -0.315600
     11 C04         10.9430    15.6800    -2.2220 cd         1 WU1       0.015000
     12 C05         11.4120    16.6100    -3.1130 cc         1 WU1      -0.096000
     13 C06         11.2670    17.9830    -2.8370 cc         1 WU1      -0.022300
     14 C08         11.2800    20.1240    -2.7800 cd         1 WU1       0.039400
     15 C09         11.5360    21.5090    -3.2680 c3         1 WU1       0.007800
     16 C11         13.9350    21.7220    -2.5020 ca         1 WU1      -0.106300
     17 C12         14.3780    20.5170    -1.9580 ca         1 WU1      -0.076000
     18 C18         15.1130    22.8900    -0.7310 ca         1 WU1      -0.214000
     19 C19         14.3220    22.8980    -1.8730 ca         1 WU1      -0.092000
     20 C23          9.9540    20.5640     1.9190 c6         1 WU1      -0.088900
     21 C25         11.7560    21.7420     3.2380 c6         1 WU1      -0.076400
     22 C27         11.9020    21.6070     0.7280 c6         1 WU1      -0.088900
     23 C29         10.1880    17.4500    -0.7550 cc         1 WU1      -0.057300
     24 C30         10.3120    16.1280    -1.0230 cd         1 WU1      -0.167000
     25 C31         11.5110    13.2240    -1.5950 cd         1 WU1       0.359600
     26 C32         11.9620    13.3630    -0.1850 c3         1 WU1      -0.134400
     27 N07         11.6190    19.0430    -3.5360 nd         1 WU1      -0.294600
     28 N21         10.1150    20.3900    -0.5200 nu         1 WU1      -0.716000
     29 N28         10.6730    18.3580    -1.6460 na         1 WU1       0.025700
     30 N33         11.5080    12.0650    -2.1840 nc         1 WU1      -0.365300
     31 O34         11.0610    12.2790    -3.4570 os         1 WU1      -0.116100
     32 CL14        15.6580    18.9920    -0.1380 cl         1 WU1      -0.099400
     33 H1          13.2860    20.9830    -4.4070 hc         1 WU1       0.058200
     34 H2          13.0680    22.7080    -4.1800 hc         1 WU1       0.058200
     35 H3          17.2200    22.4320     2.4900 h1         1 WU1       0.042367
     36 H4          17.2590    23.4100     1.0120 h1         1 WU1       0.042367
     37 H5          15.7650    23.3020     1.9710 h1         1 WU1       0.042367
     38 H6          11.4480    19.5230     0.8060 h1         1 WU1       0.059700
     39 H7          10.0420    20.7200     4.0710 hc         1 WU1       0.042200
     40 H8          11.2490    19.6560     3.3770 hc         1 WU1       0.042200
     41 H9          13.3060    20.7490     2.1140 hc         1 WU1       0.042200
     42 H10         13.3780    22.4980     2.0250 hc         1 WU1       0.042200
     43 H11          9.5550    13.3020    -5.3450 hc         1 WU1       0.066700
     44 H12          9.8370    14.9860    -4.8850 hc         1 WU1       0.066700
     45 H13         11.1040    14.0670    -5.6920 hc         1 WU1       0.066700
     46 H14         11.9130    16.3210    -4.0270 ha         1 WU1       0.160000
     47 H15         11.2480    22.2340    -2.5030 hc         1 WU1       0.047700
     48 H16         10.9020    21.7090    -4.1370 hc         1 WU1       0.047700
     49 H17         14.1070    19.5790    -2.4250 ha         1 WU1       0.161000
     50 H18         15.3860    23.8340    -0.2780 ha         1 WU1       0.136000
     51 H19         13.9970    23.8500    -2.2730 ha         1 WU1       0.130000
     52 H20          9.3420    21.4680     1.8210 hc         1 WU1       0.045200
     53 H21          9.2660    19.7140     1.9140 hc         1 WU1       0.045200
     54 H22         12.3320    21.7240     4.1660 hc         1 WU1       0.039200
     55 H23         11.2330    22.7040     3.2160 hc         1 WU1       0.039200
     56 H24         12.5790    21.5010    -0.1200 hc         1 WU1       0.045200
     57 H25         11.3640    22.5530     0.5920 hc         1 WU1       0.045200
     58 H26          9.7070    17.8390     0.1310 h4         1 WU1       0.174000
     59 H27          9.9000    15.4180    -0.3210 ha         1 WU1       0.150000
     60 H28         12.4560    12.4540     0.1530 hc         1 WU1       0.057367
     61 H29         12.6580    14.1950    -0.0830 hc         1 WU1       0.057367
     62 H30         11.1210    13.5570     0.4810 hc         1 WU1       0.057367
     63 H31          9.7250    21.2870    -0.7770 hn         1 WU1       0.399800
     64 O16         16.2800    21.5700     0.9340 os         1 WU1      -0.301900
     65 C01         10.2970    14.0020    -4.9610 c3         1 WU1      -0.142400
@<TRIPOS>BOND
     1     1    15 1   
     2     1    16 1   
     3     1    33 1   
     4     1    34 1   
     5     2     3 ar  
     6     2    17 ar  
     7     2    32 1   
     8     3    18 ar  
     9     3    64 1   
    10     4    35 1   
    11     4    36 1   
    12     4    37 1   
    13     4    64 1   
    14     5    14 2   
    15     5    28 1   
    16     5    29 1   
    17     6    20 1   
    18     6    22 1   
    19     6    28 1   
    20     6    38 1   
    21     7    20 1   
    22     7    21 1   
    23     7    39 1   
    24     7    40 1   
    25     8    21 1   
    26     8    22 1   
    27     8    41 1   
    28     8    42 1   
    29     9    10 2   
    30     9    31 1   
    31     9    65 1   
    32    10    11 1   
    33    10    25 1   
    34    11    12 2   
    35    11    24 1   
    36    12    13 1   
    37    12    46 1   
    38    13    27 2   
    39    13    29 1   
    40    14    15 1   
    41    14    27 1   
    42    15    47 1   
    43    15    48 1   
    44    16    17 ar  
    45    16    19 ar  
    46    17    49 1   
    47    18    19 ar  
    48    18    50 1   
    49    19    51 1   
    50    20    52 1   
    51    20    53 1   
    52    21    54 1   
    53    21    55 1   
    54    22    56 1   
    55    22    57 1   
    56    23    24 2   
    57    23    29 1   
    58    23    58 1   
    59    24    59 1   
    60    25    26 1   
    61    25    30 2   
    62    26    60 1   
    63    26    61 1   
    64    26    62 1   
    65    28    63 1   
    66    30    31 1   
    67    43    65 1   
    68    44    65 1   
    69    45    65 1   
@<TRIPOS>SUBSTRUCTURE
     1 WU1         1 TEMP              0 ****  ****    0 ROOT
