@<TRIPOS>MOLECULE
WU2
   77    79     1     0     0
SMALL
No Charge or Current Charge


@<TRIPOS>ATOM
      1 C16         14.6450    36.1980    21.8540 c3         1 WU2       0.001300
      2 C17         15.2410    35.0940    20.9390 c3         1 WU2      -0.083433
      3 C18         13.3830    36.8010    21.1810 c3         1 WU2      -0.083433
      4 C22          9.5760    30.2410    23.5070 cc         1 WU2      -0.065300
      5 C21         10.3400    31.1430    24.2180 cd         1 WU2       0.108500
      6 C20         13.3040    34.5190    23.2570 ca         1 WU2      -0.119000
      7 C19         15.7040    37.3290    21.9840 c3         1 WU2      -0.083433
      8 C14         14.7880    36.0250    24.4510 ca         1 WU2      -0.122000
      9 C13         14.4000    35.4360    25.6640 ca         1 WU2      -0.106000
     10 C15         14.2490    35.5730    23.2210 ca         1 WU2      -0.049300
     11 C12         12.6680    34.2160    29.9000 c3         1 WU2      -0.084100
     12 C10         12.7220    32.0270    28.4640 c3         1 WU2      -0.074400
     13 C04         12.9120    33.9150    24.4730 ca         1 WU2      -0.042000
     14 C05         13.4810    34.3790    25.6770 ca         1 WU2       0.059100
     15 C07         13.5740    32.5010    27.2520 c3         1 WU2       0.177300
     16 C08         15.1100    32.5330    27.4870 c3         1 WU2      -0.101400
     17 C09         15.7220    31.1640    27.8510 c3         1 WU2      -0.087100
     18 C27          7.9360    28.6090    24.3280 ca         1 WU2      -0.099200
     19 C28          6.6790    28.8950    23.7580 ca         1 WU2       0.196100
     20 C31          5.7410    27.8570    23.5760 ca         1 WU2      -0.290000
     21 C32          6.0560    26.5380    23.9660 ca         1 WU2       0.198100
     22 C33          7.3130    26.2560    24.5400 ca         1 WU2      -0.139300
     23 C36          8.2450    27.2940    24.7190 ca         1 WU2      -0.015000
     24 N03         11.9350    32.8830    24.5460 ns         1 WU2      -0.135000
     25 N24          8.8810    29.6170    24.5120 na         1 WU2       0.225000
     26 N25          9.1740    30.0600    25.7570 nc         1 WU2      -0.176800
     27 N26         10.0690    30.9960    25.5810 nd         1 WU2      -0.357000
     28 O01         11.5110    32.1910    22.3790 o          1 WU2      -0.602100
     29 O06         13.1310    33.8250    26.8890 os         1 WU2      -0.372100
     30 O29          6.4030    30.2000    23.3910 os         1 WU2      -0.330100
     31 O30          5.1630    25.4960    23.8030 os         1 WU2      -0.333100
     32 H1          16.1110    34.6250    21.4150 hc         1 WU2       0.035700
     33 H2          14.5100    34.3060    20.7220 hc         1 WU2       0.035700
     34 H3          15.5660    35.5130    19.9780 hc         1 WU2       0.035700
     35 H4          12.9240    37.5570    21.8290 hc         1 WU2       0.035700
     36 H5          13.6380    37.2810    20.2280 hc         1 WU2       0.035700
     37 H6          12.6290    36.0340    20.9710 hc         1 WU2       0.035700
     38 H7           9.0240    30.7990    21.4960 hc         1 WU2       0.066033
     39 H8          10.4660    29.7700    21.5950 hc         1 WU2       0.066033
     40 H9           8.8630    29.0660    21.8200 hc         1 WU2       0.066033
     41 H10         12.8670    34.1830    22.3250 ha         1 WU2       0.138000
     42 H11         15.3240    38.1590    22.5930 hc         1 WU2       0.035700
     43 H12         16.6290    36.9550    22.4390 hc         1 WU2       0.035700
     44 H13         15.9620    37.7380    20.9990 hc         1 WU2       0.035700
     45 H14         15.5090    36.8350    24.4940 ha         1 WU2       0.115000
     46 H15         14.8220    35.7930    26.6000 ha         1 WU2       0.121000
     47 H16         12.7370    34.5750    30.9340 hc         1 WU2       0.034367
     48 H17         13.3800    34.7920    29.2990 hc         1 WU2       0.034367
     49 H18         11.6540    34.4200    29.5350 hc         1 WU2       0.034367
     50 H19         12.3560    32.2010    30.5860 hc         1 WU2       0.032200
     51 H20         14.0180    32.5400    30.1490 hc         1 WU2       0.032200
     52 H21         11.6610    32.1400    28.2080 hc         1 WU2       0.050700
     53 H22         12.8780    30.9480    28.5860 hc         1 WU2       0.050700
     54 H23          7.6340    24.1470    24.1150 hc         1 WU2       0.045367
     55 H24          8.6770    24.7760    25.3960 hc         1 WU2       0.045367
     56 H25          6.9680    24.4650    25.7250 hc         1 WU2       0.045367
     57 H26          3.3210    24.7180    23.1960 h1         1 WU2       0.044700
     58 H27          3.2600    26.3770    23.8250 h1         1 WU2       0.044700
     59 H28          3.9310    26.0570    22.2020 h1         1 WU2       0.044700
     60 H29         13.3770    31.8040    26.4280 h1         1 WU2       0.040700
     61 H30         15.6010    32.8860    26.5720 hc         1 WU2       0.049700
     62 H31         15.3520    33.2610    28.2700 hc         1 WU2       0.049700
     63 H32         16.8130    31.2450    27.9310 hc         1 WU2       0.033033
     64 H33         15.3390    30.8010    28.8120 hc         1 WU2       0.033033
     65 H34         15.4900    30.4180    27.0810 hc         1 WU2       0.033033
     66 H35          5.1600    31.6680    22.5780 h1         1 WU2       0.047033
     67 H36          4.9990    30.0620    21.8410 h1         1 WU2       0.047033
     68 H37          4.3150    30.3780    23.4590 h1         1 WU2       0.047033
     69 H38          4.7750    28.0740    23.1370 ha         1 WU2       0.128000
     70 H39          9.2170    27.0800    25.1600 ha         1 WU2       0.136000
     71 H40         11.6450    32.6710    25.4930 hn         1 WU2       0.189000
     72 C11         12.9800    32.7060    29.8380 c3         1 WU2      -0.065400
     73 C02         11.3010    32.1060    23.5860 c          1 WU2       0.554600
     74 C23          9.4750    29.9520    22.0260 c3         1 WU2      -0.030800
     75 C01          7.6690    24.8350    24.9680 c3         1 WU2      -0.028800
     76 C03          3.8560    25.6750    23.2280 c3         1 WU2       0.146900
     77 C30          5.1580    30.5920    22.7880 c3         1 WU2       0.147900
@<TRIPOS>BOND
     1     1     2 1   
     2     1     3 1   
     3     1     7 1   
     4     1    10 1   
     5     2    32 1   
     6     2    33 1   
     7     2    34 1   
     8     3    35 1   
     9     3    36 1   
    10     3    37 1   
    11     4     5 2   
    12     4    25 1   
    13     4    74 1   
    14     5    27 1   
    15     5    73 1   
    16     6    10 ar  
    17     6    13 ar  
    18     6    41 1   
    19     7    42 1   
    20     7    43 1   
    21     7    44 1   
    22     8     9 ar  
    23     8    10 ar  
    24     8    45 1   
    25     9    14 ar  
    26     9    46 1   
    27    11    47 1   
    28    11    48 1   
    29    11    49 1   
    30    11    72 1   
    31    12    15 1   
    32    12    52 1   
    33    12    53 1   
    34    12    72 1   
    35    13    14 ar  
    36    13    24 1   
    37    14    29 1   
    38    15    16 1   
    39    15    29 1   
    40    15    60 1   
    41    16    17 1   
    42    16    61 1   
    43    16    62 1   
    44    17    63 1   
    45    17    64 1   
    46    17    65 1   
    47    18    19 ar  
    48    18    23 ar  
    49    18    25 1   
    50    19    20 ar  
    51    19    30 1   
    52    20    21 ar  
    53    20    69 1   
    54    21    22 ar  
    55    21    31 1   
    56    22    23 ar  
    57    22    75 1   
    58    23    70 1   
    59    24    71 1   
    60    24    73 1   
    61    25    26 1   
    62    26    27 2   
    63    28    73 2   
    64    30    77 1   
    65    31    76 1   
    66    38    74 1   
    67    39    74 1   
    68    40    74 1   
    69    50    72 1   
    70    51    72 1   
    71    54    75 1   
    72    55    75 1   
    73    56    75 1   
    74    57    76 1   
    75    58    76 1   
    76    59    76 1   
    77    66    77 1   
    78    67    77 1   
    79    68    77 1   
@<TRIPOS>SUBSTRUCTURE
     1 WU2         1 TEMP              0 ****  ****    0 ROOT
