@<TRIPOS>MOLECULE
WU2
   77    79     1     0     0
SMALL
abcg2


@<TRIPOS>ATOM
      1 C16         14.4540    36.2940    21.8990 c3         1 WU2       0.001300
      2 C17         14.9150    35.2240    20.9000 c3         1 WU2      -0.083433
      3 C18         13.1840    36.9700    21.3660 c3         1 WU2      -0.083433
      4 C22          9.7090    30.2610    23.5210 cc         1 WU2      -0.065300
      5 C21         10.3650    31.2720    24.1910 cd         1 WU2       0.108500
      6 C20         13.1650    34.6560    23.3150 ca         1 WU2      -0.119000
      7 C19         15.5510    37.3530    22.0050 c3         1 WU2      -0.083433
      8 C14         14.8260    35.9730    24.4150 ca         1 WU2      -0.122000
      9 C13         14.5240    35.3430    25.6170 ca         1 WU2      -0.106000
     10 C15         14.1580    35.6350    23.2440 ca         1 WU2      -0.049300
     11 C12         12.3230    33.4620    29.7810 c3         1 WU2      -0.084100
     12 C10         12.9220    31.6720    28.0140 c3         1 WU2      -0.074400
     13 C04         12.8590    34.0120    24.5070 ca         1 WU2      -0.042000
     14 C05         13.5550    34.3580    25.6760 ca         1 WU2       0.059100
     15 C07         13.8410    32.4700    27.0960 c3         1 WU2       0.177300
     16 C08         15.2590    32.6480    27.6240 c3         1 WU2      -0.101400
     17 C09         15.9820    31.3220    27.8240 c3         1 WU2      -0.087100
     18 C27          7.9070    28.7460    24.3310 ca         1 WU2      -0.099200
     19 C28          6.7780    28.9460    23.5390 ca         1 WU2       0.196100
     20 C31          5.8210    27.9370    23.4680 ca         1 WU2      -0.290000
     21 C32          5.9950    26.7580    24.1870 ca         1 WU2       0.198100
     22 C33          7.1350    26.5460    24.9800 ca         1 WU2      -0.139300
     23 C36          8.0730    27.5610    25.0310 ca         1 WU2      -0.015000
     24 N03         11.8410    33.0610    24.6300 ns         1 WU2      -0.135000
     25 N24          8.8620    29.7830    24.4530 na         1 WU2       0.225000
     26 N25          8.9840    30.4400    25.6110 nc         1 WU2      -0.176800
     27 N26          9.8860    31.3280    25.4550 nd         1 WU2      -0.357000
     28 O01         11.8270    32.1170    22.5510 o          1 WU2      -0.602100
     29 O06         13.2300    33.7560    26.8520 os         1 WU2      -0.372100
     30 O29          6.6930    30.1170    22.8970 os         1 WU2      -0.330100
     31 O30          5.1040    25.7570    24.1770 os         1 WU2      -0.333100
     32 H1          15.8280    34.7340    21.2430 hc         1 WU2       0.035700
     33 H2          14.1590    34.4520    20.7470 hc         1 WU2       0.035700
     34 H3          15.1240    35.6770    19.9280 hc         1 WU2       0.035700
     35 H4          12.8320    37.7460    22.0490 hc         1 WU2       0.035700
     36 H5          13.3830    37.4400    20.4010 hc         1 WU2       0.035700
     37 H6          12.3700    36.2580    21.2220 hc         1 WU2       0.035700
     38 H7           9.1910    30.3070    21.4590 hc         1 WU2       0.066033
     39 H8          10.8360    29.7840    21.7900 hc         1 WU2       0.066033
     40 H9           9.4820    28.6910    22.0960 hc         1 WU2       0.066033
     41 H10         12.6090    34.3980    22.4260 ha         1 WU2       0.138000
     42 H11         15.2760    38.1620    22.6840 hc         1 WU2       0.035700
     43 H12         16.4980    36.9300    22.3450 hc         1 WU2       0.035700
     44 H13         15.7250    37.7960    21.0230 hc         1 WU2       0.035700
     45 H14         15.5950    36.7320    24.4160 ha         1 WU2       0.115000
     46 H15         15.0460    35.6240    26.5230 ha         1 WU2       0.121000
     47 H16         12.1940    33.6020    30.8550 hc         1 WU2       0.034367
     48 H17         12.9860    34.2490    29.4260 hc         1 WU2       0.034367
     49 H18         11.3500    33.6130    29.3110 hc         1 WU2       0.034367
     50 H19         12.2430    31.3330    29.9970 hc         1 WU2       0.032200
     51 H20         13.8620    31.9640    29.9350 hc         1 WU2       0.032200
     52 H21         11.9120    31.6890    27.5920 hc         1 WU2       0.050700
     53 H22         13.2410    30.6280    27.9520 hc         1 WU2       0.050700
     54 H23          7.3370    24.3990    25.0790 hc         1 WU2       0.045367
     55 H24          8.2600    25.2820    26.2900 hc         1 WU2       0.045367
     56 H25          6.5180    25.1040    26.4620 hc         1 WU2       0.045367
     57 H26          3.3510    24.9760    23.5730 h1         1 WU2       0.044700
     58 H27          3.3100    26.7370    23.7670 h1         1 WU2       0.044700
     59 H28          4.1180    26.0120    22.3570 h1         1 WU2       0.044700
     60 H29         13.8980    31.9290    26.1420 h1         1 WU2       0.040700
     61 H30         15.8260    33.2510    26.9100 hc         1 WU2       0.049700
     62 H31         15.2400    33.2150    28.5580 hc         1 WU2       0.049700
     63 H32         17.0250    31.4890    28.0900 hc         1 WU2       0.033033
     64 H33         15.5340    30.7230    28.6180 hc         1 WU2       0.033033
     65 H34         15.9670    30.7230    26.9110 hc         1 WU2       0.033033
     66 H35          5.7040    31.3660    21.6680 h1         1 WU2       0.047033
     67 H36          5.4720    29.6530    21.2730 h1         1 WU2       0.047033
     68 H37          4.6360    30.3680    22.6720 h1         1 WU2       0.047033
     69 H38          4.9370    28.0800    22.8620 ha         1 WU2       0.128000
     70 H39          8.9630    27.4340    25.6360 ha         1 WU2       0.136000
     71 H40         11.4470    32.9570    25.5560 hn         1 WU2       0.189000
     72 C11         12.8700    32.0700    29.4880 c3         1 WU2      -0.065400
     73 C02         11.4110    32.1800    23.6960 c          1 WU2       0.554600
     74 C23          9.8110    29.7280    22.1430 c3         1 WU2      -0.030800
     75 C01          7.3200    25.2670    25.7410 c3         1 WU2      -0.028800
     76 C03          3.9140    25.8930    23.4240 c3         1 WU2       0.146900
     77 C30          5.5600    30.3750    22.0880 c3         1 WU2       0.147900
@<TRIPOS>BOND
     1     1     2 1   
     2     1     3 1   
     3     1     7 1   
     4     1    10 1   
     5     2    32 1   
     6     2    33 1   
     7     2    34 1   
     8     3    35 1   
     9     3    36 1   
    10     3    37 1   
    11     4     5 2   
    12     4    25 1   
    13     4    74 1   
    14     5    27 1   
    15     5    73 1   
    16     6    10 ar  
    17     6    13 ar  
    18     6    41 1   
    19     7    42 1   
    20     7    43 1   
    21     7    44 1   
    22     8     9 ar  
    23     8    10 ar  
    24     8    45 1   
    25     9    14 ar  
    26     9    46 1   
    27    11    47 1   
    28    11    48 1   
    29    11    49 1   
    30    11    72 1   
    31    12    15 1   
    32    12    52 1   
    33    12    53 1   
    34    12    72 1   
    35    13    14 ar  
    36    13    24 1   
    37    14    29 1   
    38    15    16 1   
    39    15    29 1   
    40    15    60 1   
    41    16    17 1   
    42    16    61 1   
    43    16    62 1   
    44    17    63 1   
    45    17    64 1   
    46    17    65 1   
    47    18    19 ar  
    48    18    23 ar  
    49    18    25 1   
    50    19    20 ar  
    51    19    30 1   
    52    20    21 ar  
    53    20    69 1   
    54    21    22 ar  
    55    21    31 1   
    56    22    23 ar  
    57    22    75 1   
    58    23    70 1   
    59    24    71 1   
    60    24    73 1   
    61    25    26 1   
    62    26    27 2   
    63    28    73 2   
    64    30    77 1   
    65    31    76 1   
    66    38    74 1   
    67    39    74 1   
    68    40    74 1   
    69    50    72 1   
    70    51    72 1   
    71    54    75 1   
    72    55    75 1   
    73    56    75 1   
    74    57    76 1   
    75    58    76 1   
    76    59    76 1   
    77    66    77 1   
    78    67    77 1   
    79    68    77 1   
@<TRIPOS>SUBSTRUCTURE
     1 WU2         1 TEMP              0 ****  ****    0 ROOT
