@<TRIPOS>MOLECULE
WU4
   69    74     1     0     0
SMALL
bcc


@<TRIPOS>ATOM
      1 N1          43.2190    16.0850    39.7360 ns         1 WU4      -0.568900
      2 C7          37.3890    16.1760    36.6410 ca         1 WU4      -0.156000
      3 C8          36.6210    17.1490    37.3020 ca         1 WU4      -0.109000
      4 N2          45.6190    16.8540    38.6180 n3         1 WU4      -0.734600
      5 C9          37.1880    18.0800    38.1570 ca         1 WU4      -0.093300
      6 C1          41.8610    18.8800    39.7070 c6         1 WU4       0.022200
      7 C5          39.3670    17.0290    37.6760 ca         1 WU4      -0.088800
      8 C6          38.7570    16.1080    36.8170 ca         1 WU4      -0.083000
      9 C4          40.7160    17.2530    38.0960 cc         1 WU4      -0.152400
     10 C3          40.6960    18.3110    38.9570 cd         1 WU4      -0.047300
     11 C2          41.7270    18.4550    41.1800 c3         1 WU4      -0.086100
     12 N           39.4070    18.7570    39.0980 na         1 WU4      -0.163400
     13 C           41.8570    20.4150    39.6510 c3         1 WU4      -0.086100
     14 O           44.3790    15.7220    41.6520 o          1 WU4      -0.637500
     15 C10         36.3780    19.1520    38.8400 c3         1 WU4       0.009100
     16 C11         36.6710    20.5040    38.2550 c2         1 WU4      -0.164200
     17 C12         37.1970    21.5730    38.8580 c2         1 WU4      -0.124400
     18 C13         37.5930    21.6410    40.3030 c3         1 WU4      -0.058400
     19 C14         37.4430    22.8400    38.0920 c3         1 WU4      -0.058400
     20 C15         38.5720    17.9950    38.3280 ca         1 WU4      -0.033200
     21 C16         41.9550    16.5450    37.6750 c6         1 WU4       0.001800
     22 C17         43.1510    16.9170    38.5460 c6         1 WU4       0.112400
     23 C18         43.1470    18.3940    38.9810 c6         1 WU4      -0.056700
     24 C19         44.4460    18.6170    39.7750 c6         1 WU4      -0.069400
     25 C20         45.2250    17.3010    39.9630 c6         1 WU4       0.130200
     26 C21         46.4370    17.5470    40.8470 c6         1 WU4      -0.052400
     27 C22         47.4150    16.3840    40.8530 c6         1 WU4      -0.075400
     28 C23         47.7920    16.0350    39.4260 c6         1 WU4      -0.075400
     29 C24         46.5750    15.7470    38.5550 c6         1 WU4       0.196500
     30 C25         47.0410    15.5310    37.1190 c3         1 WU4      -0.093100
     31 C26         44.2540    16.2820    40.5720 c          1 WU4       0.677500
     32 C27         44.4460    16.6530    37.7720 c6         1 WU4       0.165800
     33 H1          42.4580    15.4750    39.9980 hn         1 WU4       0.326500
     34 H2          36.8940    15.4720    35.9840 ha         1 WU4       0.129000
     35 H3          35.5500    17.1750    37.1390 ha         1 WU4       0.127000
     36 H5          39.3440    15.3550    36.3040 ha         1 WU4       0.130000
     37 H6          42.5630    18.8050    41.7850 hc         1 WU4       0.039700
     38 H7          40.8250    18.9000    41.6050 hc         1 WU4       0.039700
     39 H8          41.6450    17.3770    41.2990 hc         1 WU4       0.039700
     40 H9          39.1180    19.5170    39.6910 hn         1 WU4       0.303700
     41 H10         42.7390    20.8150    40.1520 hc         1 WU4       0.039700
     42 H11         41.8590    20.7770    38.6220 hc         1 WU4       0.039700
     43 H12         40.9870    20.8370    40.1590 hc         1 WU4       0.039700
     44 H13         35.3170    18.9240    38.7070 hc         1 WU4       0.051700
     45 H14         36.5600    19.1310    39.9170 hc         1 WU4       0.051700
     46 H15         36.4340    20.5900    37.1970 ha         1 WU4       0.125000
     47 H16         38.6600    21.8630    40.3970 hc         1 WU4       0.039200
     48 H17         37.0680    22.4570    40.8060 hc         1 WU4       0.039200
     49 H18         37.3890    20.7290    40.8620 hc         1 WU4       0.039200
     50 H19         36.9000    23.6780    38.5350 hc         1 WU4       0.039200
     51 H20         38.5020    23.1100    38.1170 hc         1 WU4       0.039200
     52 H21         37.1420    22.7540    37.0480 hc         1 WU4       0.039200
     53 H22         41.8210    15.4580    37.6890 hc         1 WU4       0.056700
     54 H23         42.1940    16.7960    36.6360 hc         1 WU4       0.056700
     55 H24         43.1940    18.9770    38.0540 hc         1 WU4       0.064700
     56 H25         45.1080    19.3080    39.2490 hc         1 WU4       0.058700
     57 H26         44.2600    19.0590    40.7550 hc         1 WU4       0.058700
     58 H27         46.9490    18.4370    40.4680 hc         1 WU4       0.051200
     59 H28         46.0990    17.7880    41.8560 hc         1 WU4       0.051200
     60 H29         46.9760    15.5170    41.3510 hc         1 WU4       0.051700
     61 H30         48.3060    16.6530    41.4240 hc         1 WU4       0.051700
     62 H31         48.4490    15.1630    39.3990 hc         1 WU4       0.044700
     63 H32         48.3490    16.8670    38.9810 hc         1 WU4       0.044700
     64 H33         46.1120    14.8070    38.9070 h1         1 WU4       0.029700
     65 H34         47.7840    14.7330    37.0890 hc         1 WU4       0.037700
     66 H35         46.2360    15.2450    36.4430 hc         1 WU4       0.037700
     67 H36         47.5040    16.4400    36.7300 hc         1 WU4       0.037700
     68 H37         44.3910    15.6200    37.4100 h1         1 WU4       0.049700
     69 H38         44.4740    17.2990    36.8880 h1         1 WU4       0.049700
@<TRIPOS>BOND
     1     1    22 1   
     2     1    31 1   
     3     1    33 1   
     4     2     3 ar  
     5     2     8 ar  
     6     2    34 1   
     7     3     5 ar  
     8     3    35 1   
     9     4    25 1   
    10     4    29 1   
    11     4    32 1   
    12     5    15 1   
    13     5    20 ar  
    14     6    10 1   
    15     6    11 1   
    16     6    13 1   
    17     6    23 1   
    18     7     8 ar  
    19     7     9 1   
    20     7    20 ar  
    21     8    36 1   
    22     9    10 2   
    23     9    21 1   
    24    10    12 1   
    25    11    37 1   
    26    11    38 1   
    27    11    39 1   
    28    12    20 1   
    29    12    40 1   
    30    13    41 1   
    31    13    42 1   
    32    13    43 1   
    33    14    31 2   
    34    15    16 1   
    35    15    44 1   
    36    15    45 1   
    37    16    17 2   
    38    16    46 1   
    39    17    18 1   
    40    17    19 1   
    41    18    47 1   
    42    18    48 1   
    43    18    49 1   
    44    19    50 1   
    45    19    51 1   
    46    19    52 1   
    47    21    22 1   
    48    21    53 1   
    49    21    54 1   
    50    22    23 1   
    51    22    32 1   
    52    23    24 1   
    53    23    55 1   
    54    24    25 1   
    55    24    56 1   
    56    24    57 1   
    57    25    26 1   
    58    25    31 1   
    59    26    27 1   
    60    26    58 1   
    61    26    59 1   
    62    27    28 1   
    63    27    60 1   
    64    27    61 1   
    65    28    29 1   
    66    28    62 1   
    67    28    63 1   
    68    29    30 1   
    69    29    64 1   
    70    30    65 1   
    71    30    66 1   
    72    30    67 1   
    73    32    68 1   
    74    32    69 1   
@<TRIPOS>SUBSTRUCTURE
     1 WU4         1 TEMP              0 ****  ****    0 ROOT
