@<TRIPOS>MOLECULE
WU4
   69    74     1     0     0
SMALL
No Charge or Current Charge


@<TRIPOS>ATOM
      1 N1          43.1590    16.1780    39.9590 ns         1 WU4      -0.501900
      2 C7          37.2940    16.0690    36.5630 ca         1 WU4      -0.138000
      3 C8          36.5060    17.1280    37.0750 ca         1 WU4      -0.091000
      4 N2          45.6510    16.8640    38.5790 n3         1 WU4      -0.734600
      5 C9          37.0850    18.1310    37.8890 ca         1 WU4      -0.093300
      6 C1          41.7730    18.9530    39.5660 c6         1 WU4       0.022200
      7 C5          39.2180    17.0010    37.6680 ca         1 WU4      -0.088800
      8 C6          38.6710    15.9970    36.8580 ca         1 WU4      -0.065000
      9 C4          40.5660    17.1880    38.1230 cc         1 WU4      -0.152400
     10 C3          40.5580    18.3600    38.8740 cd         1 WU4      -0.047300
     11 C2          41.5980    18.6520    41.0960 c3         1 WU4      -0.086100
     12 N           39.2440    18.8770    38.9150 na         1 WU4      -0.213700
     13 C           41.7710    20.5070    39.4090 c3         1 WU4      -0.086100
     14 O           44.6090    15.5990    41.6020 o          1 WU4      -0.562000
     15 C10         36.2360    19.2650    38.4620 c3         1 WU4       0.009100
     16 C11         36.8320    20.6410    38.1960 c2         1 WU4      -0.214200
     17 C12         37.3450    21.5230    39.0780 c2         1 WU4      -0.124400
     18 C13         37.4540    21.3320    40.5860 c3         1 WU4      -0.058400
     19 C14         37.9080    22.8620    38.6390 c3         1 WU4      -0.058400
     20 C15         38.4610    18.0250    38.1620 ca         1 WU4      -0.033200
     21 C16         41.8010    16.3710    37.8300 c6         1 WU4       0.001800
     22 C17         43.0560    16.8230    38.6390 c6         1 WU4       0.112400
     23 C18         43.0820    18.3610    38.8930 c6         1 WU4      -0.056700
     24 C19         44.4190    18.6940    39.6490 c6         1 WU4      -0.069400
     25 C20         45.2900    17.3820    39.9630 c6         1 WU4       0.130200
     26 C21         46.5760    17.7180    40.8310 c6         1 WU4      -0.052400
     27 C22         47.6150    16.5780    40.8230 c6         1 WU4      -0.075400
     28 C23         47.9480    16.1860    39.3710 c6         1 WU4      -0.075400
     29 C24         46.6770    15.7690    38.5820 c6         1 WU4       0.196500
     30 C25         47.0920    15.3460    37.1420 c3         1 WU4      -0.093100
     31 C26         44.3250    16.3380    40.6700 c          1 WU4       0.535000
     32 C27         44.3790    16.4440    37.8530 c6         1 WU4       0.165800
     33 H1          42.4980    15.4700    40.2530 hn         1 WU4       0.326500
     34 H2          36.8360    15.3060    35.9380 ha         1 WU4       0.111000
     35 H3          35.4440    17.1630    36.8400 ha         1 WU4       0.109000
     36 H5          39.2870    15.1900    36.4710 ha         1 WU4       0.112000
     37 H6          42.4230    19.0280    41.7090 hc         1 WU4       0.039700
     38 H7          40.6870    19.1260    41.4820 hc         1 WU4       0.039700
     39 H8          41.4890    17.5820    41.2980 hc         1 WU4       0.039700
     40 H9          38.9380    19.7330    39.3620 hn         1 WU4       0.354000
     41 H10         42.6410    20.9650    39.8940 hc         1 WU4       0.039700
     42 H11         41.7920    20.7980    38.3520 hc         1 WU4       0.039700
     43 H12         40.8780    20.9620    39.8530 hc         1 WU4       0.039700
     44 H13         35.2310    19.2330    38.0240 hc         1 WU4       0.051700
     45 H14         36.0800    19.0860    39.5300 hc         1 WU4       0.051700
     46 H15         36.8190    20.8970    37.1350 ha         1 WU4       0.175000
     47 H16         38.4910    21.4500    40.9220 hc         1 WU4       0.039200
     48 H17         36.8510    22.0770    41.1170 hc         1 WU4       0.039200
     49 H18         37.1230    20.3460    40.9270 hc         1 WU4       0.039200
     50 H19         37.3720    23.6920    39.1160 hc         1 WU4       0.039200
     51 H20         38.9690    22.9520    38.9040 hc         1 WU4       0.039200
     52 H21         37.8290    23.0020    37.5540 hc         1 WU4       0.039200
     53 H22         41.6120    15.3030    38.0020 hc         1 WU4       0.056700
     54 H23         42.0170    16.4590    36.7570 hc         1 WU4       0.056700
     55 H24         43.1540    18.8260    37.8990 hc         1 WU4       0.064700
     56 H25         45.0150    19.3850    39.0370 hc         1 WU4       0.058700
     57 H26         44.2410    19.2360    40.5840 hc         1 WU4       0.058700
     58 H27         47.0430    18.6280    40.4300 hc         1 WU4       0.051200
     59 H28         46.2830    17.9550    41.8620 hc         1 WU4       0.051200
     60 H29         47.2360    15.7040    41.3690 hc         1 WU4       0.051700
     61 H30         48.5270    16.8990    41.3440 hc         1 WU4       0.051700
     62 H31         48.6720    15.3600    39.3770 hc         1 WU4       0.044700
     63 H32         48.4400    17.0280    38.8650 hc         1 WU4       0.044700
     64 H33         46.2570    14.8790    39.0740 h1         1 WU4       0.029700
     65 H34         47.8830    14.5870    37.1690 hc         1 WU4       0.037700
     66 H35         46.2580    14.9120    36.5790 hc         1 WU4       0.037700
     67 H36         47.4720    16.2020    36.5720 hc         1 WU4       0.037700
     68 H37         44.3570    15.3550    37.7000 h1         1 WU4       0.049700
     69 H38         44.3570    16.9020    36.8530 h1         1 WU4       0.049700
@<TRIPOS>BOND
     1     1    22 1   
     2     1    31 1   
     3     1    33 1   
     4     2     3 ar  
     5     2     8 ar  
     6     2    34 1   
     7     3     5 ar  
     8     3    35 1   
     9     4    25 1   
    10     4    29 1   
    11     4    32 1   
    12     5    15 1   
    13     5    20 ar  
    14     6    10 1   
    15     6    11 1   
    16     6    13 1   
    17     6    23 1   
    18     7     8 ar  
    19     7     9 1   
    20     7    20 ar  
    21     8    36 1   
    22     9    10 2   
    23     9    21 1   
    24    10    12 1   
    25    11    37 1   
    26    11    38 1   
    27    11    39 1   
    28    12    20 1   
    29    12    40 1   
    30    13    41 1   
    31    13    42 1   
    32    13    43 1   
    33    14    31 2   
    34    15    16 1   
    35    15    44 1   
    36    15    45 1   
    37    16    17 2   
    38    16    46 1   
    39    17    18 1   
    40    17    19 1   
    41    18    47 1   
    42    18    48 1   
    43    18    49 1   
    44    19    50 1   
    45    19    51 1   
    46    19    52 1   
    47    21    22 1   
    48    21    53 1   
    49    21    54 1   
    50    22    23 1   
    51    22    32 1   
    52    23    24 1   
    53    23    55 1   
    54    24    25 1   
    55    24    56 1   
    56    24    57 1   
    57    25    26 1   
    58    25    31 1   
    59    26    27 1   
    60    26    58 1   
    61    26    59 1   
    62    27    28 1   
    63    27    60 1   
    64    27    61 1   
    65    28    29 1   
    66    28    62 1   
    67    28    63 1   
    68    29    30 1   
    69    29    64 1   
    70    30    65 1   
    71    30    66 1   
    72    30    67 1   
    73    32    68 1   
    74    32    69 1   
@<TRIPOS>SUBSTRUCTURE
     1 WU4         1 TEMP              0 ****  ****    0 ROOT
