@<TRIPOS>MOLECULE
WU5
   69    72     1     0     0
SMALL
abcg2


@<TRIPOS>ATOM
      1 C4         -37.5500   -59.1510    20.8940 c3         1 WU5      -0.067400
      2 C14        -43.8360   -60.1510    27.4630 c6         1 WU5      -0.045700
      3 C5         -38.8030   -59.9720    21.2450 c3         1 WU5      -0.048700
      4 C6         -38.4860   -61.4680    21.2210 c3         1 WU5      -0.088100
      5 C11        -42.3630   -59.4820    24.9620 c6         1 WU5      -0.044700
      6 C7         -39.3770   -59.4950    22.5910 c5         1 WU5      -0.054700
      7 C8         -39.7470   -57.9800    22.5750 c5         1 WU5      -0.077400
      8 C9         -40.9610   -57.7970    23.5140 c5         1 WU5      -0.070400
      9 C10        -41.0730   -59.1440    24.2260 c5         1 WU5      -0.064700
     10 C12        -42.7370   -58.4030    25.9810 c6         1 WU5      -0.070400
     11 C13        -43.9770   -58.7840    26.7860 c6         1 WU5      -0.068400
     12 C3         -37.0680   -59.3500    19.4520 c3         1 WU5      -0.180400
     13 C1         -36.0130   -57.6870    17.8430 c3         1 WU5       0.079600
     14 C15        -42.8420   -60.0820    28.6340 c6         1 WU5      -0.107400
     15 C16        -42.6720   -61.4160    29.3440 c6         1 WU5       0.168300
     16 C17        -42.2630   -62.4990    28.3630 c6         1 WU5      -0.071400
     17 C18        -43.2790   -62.5850    27.2260 c6         1 WU5      -0.070400
     18 C19        -43.4820   -61.2700    26.4420 c6         1 WU5      -0.033000
     19 C2         -35.8790   -58.4850    19.1190 c          1 WU5       0.535100
     20 C20        -44.6770   -61.5000    25.5010 c3         1 WU5      -0.085100
     21 C21        -42.2070   -60.8600    25.6460 c6         1 WU5      -0.045700
     22 C22        -41.7240   -61.9280    24.6540 c6         1 WU5      -0.070400
     23 C23        -40.4690   -61.5140    23.8720 c6         1 WU5      -0.062400
     24 C24        -40.6620   -60.1760    23.1480 c5         1 WU5      -0.040000
     25 C25        -41.7160   -60.3110    22.0370 c3         1 WU5      -0.078100
     26 O1         -34.8830   -58.4220    19.8090 o          1 WU5      -0.487100
     27 O2         -41.6680   -61.3420    30.3710 oh         1 WU5      -0.667000
     28 F1         -34.8660   -56.9540    17.5650 f          1 WU5      -0.245000
     29 H1         -36.7420   -59.4080    21.5840 hc         1 WU5       0.052200
     30 H2         -37.7570   -58.0900    21.0330 hc         1 WU5       0.052200
     31 H3         -44.8100   -60.4180    27.8900 hc         1 WU5       0.042700
     32 H4         -39.5520   -59.7660    20.4710 hc         1 WU5       0.043700
     33 H5         -39.3860   -62.0720    21.3190 hc         1 WU5       0.034700
     34 H6         -38.0040   -61.7590    20.2870 hc         1 WU5       0.034700
     35 H7         -37.8130   -61.7320    22.0420 hc         1 WU5       0.034700
     36 H8         -43.1740   -59.5360    24.2290 hc         1 WU5       0.048700
     37 H9         -38.5960   -59.6500    23.3460 hc         1 WU5       0.047700
     38 H10        -38.9020   -57.3720    22.8990 hc         1 WU5       0.039700
     39 H11        -39.9890   -57.6620    21.5580 hc         1 WU5       0.039700
     40 H12        -40.8250   -56.9680    24.2090 hc         1 WU5       0.042200
     41 H13        -41.8700   -57.5900    22.9430 hc         1 WU5       0.042200
     42 H14        -40.2700   -59.1730    24.9760 hc         1 WU5       0.044700
     43 H15        -41.8880   -58.2410    26.6530 hc         1 WU5       0.039700
     44 H16        -42.9100   -57.4540    25.4690 hc         1 WU5       0.039700
     45 H17        -44.1820   -58.0240    27.5470 hc         1 WU5       0.039700
     46 H18        -44.8440   -58.7950    26.1210 hc         1 WU5       0.039700
     47 H19        -37.8810   -59.1490    18.7490 hc         1 WU5       0.061700
     48 H20        -36.7500   -60.3830    19.2820 hc         1 WU5       0.061700
     49 H21        -36.2100   -58.3630    17.0060 h1         1 WU5       0.062200
     50 H22        -36.8560   -56.9960    17.9410 h1         1 WU5       0.062200
     51 H23        -41.8560   -59.7560    28.2940 hc         1 WU5       0.046200
     52 H24        -43.1930   -59.3310    29.3490 hc         1 WU5       0.046200
     53 H25        -43.6280   -61.7030    29.8020 h1         1 WU5       0.027700
     54 H26        -42.1970   -63.4600    28.8800 hc         1 WU5       0.054200
     55 H27        -41.2650   -62.2700    27.9780 hc         1 WU5       0.054200
     56 H28        -44.2490   -62.8640    27.6530 hc         1 WU5       0.040700
     57 H29        -43.0090   -63.3910    26.5430 hc         1 WU5       0.040700
     58 H30        -45.5800   -61.6790    26.0890 hc         1 WU5       0.033367
     59 H31        -44.8690   -60.6520    24.8460 hc         1 WU5       0.033367
     60 H32        -44.5150   -62.3770    24.8720 hc         1 WU5       0.033367
     61 H33        -41.3980   -60.7340    26.3750 hc         1 WU5       0.048700
     62 H34        -42.5220   -62.1660    23.9480 hc         1 WU5       0.039200
     63 H35        -41.5040   -62.8540    25.1880 hc         1 WU5       0.039200
     64 H36        -40.2110   -62.3130    23.1770 hc         1 WU5       0.040700
     65 H37        -39.6270   -61.4130    24.5660 hc         1 WU5       0.040700
     66 H38        -42.6950   -60.5800    22.4320 hc         1 WU5       0.032367
     67 H39        -41.8330   -59.3850    21.4740 hc         1 WU5       0.032367
     68 H40        -41.4250   -61.0900    21.3300 hc         1 WU5       0.032367
     69 H41        -41.9280   -60.6510    30.9930 ho         1 WU5       0.438000
@<TRIPOS>BOND
     1     1     3 1   
     2     1    12 1   
     3     1    29 1   
     4     1    30 1   
     5     2    11 1   
     6     2    14 1   
     7     2    18 1   
     8     2    31 1   
     9     3     4 1   
    10     3     6 1   
    11     3    32 1   
    12     4    33 1   
    13     4    34 1   
    14     4    35 1   
    15     5     9 1   
    16     5    10 1   
    17     5    21 1   
    18     5    36 1   
    19     6     7 1   
    20     6    24 1   
    21     6    37 1   
    22     7     8 1   
    23     7    38 1   
    24     7    39 1   
    25     8     9 1   
    26     8    40 1   
    27     8    41 1   
    28     9    24 1   
    29     9    42 1   
    30    10    11 1   
    31    10    43 1   
    32    10    44 1   
    33    11    45 1   
    34    11    46 1   
    35    12    19 1   
    36    12    47 1   
    37    12    48 1   
    38    13    19 1   
    39    13    28 1   
    40    13    49 1   
    41    13    50 1   
    42    14    15 1   
    43    14    51 1   
    44    14    52 1   
    45    15    16 1   
    46    15    27 1   
    47    15    53 1   
    48    16    17 1   
    49    16    54 1   
    50    16    55 1   
    51    17    18 1   
    52    17    56 1   
    53    17    57 1   
    54    18    20 1   
    55    18    21 1   
    56    19    26 2   
    57    20    58 1   
    58    20    59 1   
    59    20    60 1   
    60    21    22 1   
    61    21    61 1   
    62    22    23 1   
    63    22    62 1   
    64    22    63 1   
    65    23    24 1   
    66    23    64 1   
    67    23    65 1   
    68    24    25 1   
    69    25    66 1   
    70    25    67 1   
    71    25    68 1   
    72    27    69 1   
@<TRIPOS>SUBSTRUCTURE
     1 WU5         1 TEMP              0 ****  ****    0 ROOT
