@<TRIPOS>MOLECULE
WU5
   69    72     1     0     0
SMALL
No Charge or Current Charge


@<TRIPOS>ATOM
      1 C4         -37.4170   -59.2200    20.8600 c3         1 WU5      -0.067400
      2 C14        -43.7770   -60.0930    27.5540 c6         1 WU5      -0.045700
      3 C5         -38.6970   -60.0560    21.1830 c3         1 WU5      -0.048700
      4 C6         -38.3540   -61.5650    21.2810 c3         1 WU5      -0.088100
      5 C11        -42.3980   -59.4770    24.9290 c6         1 WU5      -0.044700
      6 C7         -39.4110   -59.5020    22.5000 c5         1 WU5      -0.054700
      7 C8         -39.8570   -57.9970    22.3760 c5         1 WU5      -0.077400
      8 C9         -41.0710   -57.8200    23.3380 c5         1 WU5      -0.070400
      9 C10        -41.1060   -59.1590    24.1180 c5         1 WU5      -0.064700
     10 C12        -42.6830   -58.3620    25.9740 c6         1 WU5      -0.070400
     11 C13        -43.9070   -58.7030    26.8600 c6         1 WU5      -0.068400
     12 C3         -36.7280   -59.5470    19.5080 c3         1 WU5      -0.180400
     13 C1         -36.1780   -57.3690    18.1780 c3         1 WU5       0.079600
     14 C15        -42.6870   -60.0480    28.6760 c6         1 WU5      -0.107400
     15 C16        -42.5450   -61.4050    29.4020 c6         1 WU5       0.168300
     16 C17        -42.2500   -62.5340    28.3890 c6         1 WU5      -0.071400
     17 C18        -43.3530   -62.5920    27.3040 c6         1 WU5      -0.070400
     18 C19        -43.5330   -61.2500    26.5070 c6         1 WU5      -0.033000
     19 C2         -35.6900   -58.4770    19.1350 c          1 WU5       0.535100
     20 C20        -44.8130   -61.4360    25.6160 c3         1 WU5      -0.085100
     21 C21        -42.2610   -60.8860    25.6190 c6         1 WU5      -0.045700
     22 C22        -41.8860   -61.9820    24.5650 c6         1 WU5      -0.070400
     23 C23        -40.6200   -61.6130    23.7430 c6         1 WU5      -0.062400
     24 C24        -40.7490   -60.2130    23.0160 c5         1 WU5      -0.040000
     25 C25        -41.8080   -60.3570    21.8690 c3         1 WU5      -0.078100
     26 O1         -34.5520   -58.5120    19.5910 o          1 WU5      -0.487100
     27 O2         -41.4990   -61.3340    30.3740 oh         1 WU5      -0.667000
     28 F1         -35.2540   -56.3900    17.9730 f          1 WU5      -0.245000
     29 H1         -36.6900   -59.3360    21.6740 hc         1 WU5       0.052200
     30 H2         -37.6840   -58.1570    20.8400 hc         1 WU5       0.052200
     31 H3         -44.7350   -60.2900    28.0570 hc         1 WU5       0.042700
     32 H4         -39.3460   -59.9610    20.2850 hc         1 WU5       0.043700
     33 H5         -39.2630   -62.1700    21.2330 hc         1 WU5       0.034700
     34 H6         -37.7320   -61.9010    20.4450 hc         1 WU5       0.034700
     35 H7         -37.8240   -61.7900    22.2140 hc         1 WU5       0.034700
     36 H8         -43.2380   -59.4960    24.2240 hc         1 WU5       0.048700
     37 H9         -38.6500   -59.5790    23.2870 hc         1 WU5       0.047700
     38 H10        -39.0370   -57.3220    22.6470 hc         1 WU5       0.039700
     39 H11        -40.1450   -57.7410    21.3500 hc         1 WU5       0.039700
     40 H12        -40.9370   -56.9600    24.0030 hc         1 WU5       0.042200
     41 H13        -42.0010   -57.6480    22.7830 hc         1 WU5       0.042200
     42 H14        -40.3180   -59.1350    24.8820 hc         1 WU5       0.044700
     43 H15        -41.7980   -58.1940    26.6020 hc         1 WU5       0.039700
     44 H16        -42.8750   -57.4090    25.4630 hc         1 WU5       0.039700
     45 H17        -44.0380   -57.9200    27.6190 hc         1 WU5       0.039700
     46 H18        -44.8190   -58.6710    26.2500 hc         1 WU5       0.039700
     47 H19        -37.5090   -59.5740    18.7390 hc         1 WU5       0.061700
     48 H20        -36.2200   -60.5150    19.5780 hc         1 WU5       0.061700
     49 H21        -36.4300   -57.8270    17.2140 h1         1 WU5       0.062200
     50 H22        -37.0840   -56.9180    18.6000 h1         1 WU5       0.062200
     51 H23        -41.7120   -59.7530    28.2690 hc         1 WU5       0.046200
     52 H24        -42.9540   -59.2730    29.4080 hc         1 WU5       0.046200
     53 H25        -43.4990   -61.6310    29.9020 h1         1 WU5       0.027700
     54 H26        -42.2070   -63.4970    28.9160 hc         1 WU5       0.054200
     55 H27        -41.2630   -62.3920    27.9310 hc         1 WU5       0.054200
     56 H28        -44.3000   -62.8430    27.8020 hc         1 WU5       0.040700
     57 H29        -43.1610   -63.4340    26.6270 hc         1 WU5       0.040700
     58 H30        -45.7050   -61.5870    26.2360 hc         1 WU5       0.033367
     59 H31        -45.0210   -60.5780    24.9700 hc         1 WU5       0.033367
     60 H32        -44.7320   -62.3160    24.9680 hc         1 WU5       0.033367
     61 H33        -41.3960   -60.8110    26.2880 hc         1 WU5       0.048700
     62 H34        -42.7250   -62.1700    23.8840 hc         1 WU5       0.039200
     63 H35        -41.6850   -62.9360    25.0660 hc         1 WU5       0.039200
     64 H36        -40.4330   -62.4180    23.0250 hc         1 WU5       0.040700
     65 H37        -39.7500   -61.5960    24.4130 hc         1 WU5       0.040700
     66 H38        -42.8080   -60.5960    22.2460 hc         1 WU5       0.032367
     67 H39        -41.9090   -59.4500    21.2640 hc         1 WU5       0.032367
     68 H40        -41.5270   -61.1600    21.1780 hc         1 WU5       0.032367
     69 H41        -41.7510   -60.6250    31.0050 ho         1 WU5       0.438000
@<TRIPOS>BOND
     1     1     3 1   
     2     1    12 1   
     3     1    29 1   
     4     1    30 1   
     5     2    11 1   
     6     2    14 1   
     7     2    18 1   
     8     2    31 1   
     9     3     4 1   
    10     3     6 1   
    11     3    32 1   
    12     4    33 1   
    13     4    34 1   
    14     4    35 1   
    15     5     9 1   
    16     5    10 1   
    17     5    21 1   
    18     5    36 1   
    19     6     7 1   
    20     6    24 1   
    21     6    37 1   
    22     7     8 1   
    23     7    38 1   
    24     7    39 1   
    25     8     9 1   
    26     8    40 1   
    27     8    41 1   
    28     9    24 1   
    29     9    42 1   
    30    10    11 1   
    31    10    43 1   
    32    10    44 1   
    33    11    45 1   
    34    11    46 1   
    35    12    19 1   
    36    12    47 1   
    37    12    48 1   
    38    13    19 1   
    39    13    28 1   
    40    13    49 1   
    41    13    50 1   
    42    14    15 1   
    43    14    51 1   
    44    14    52 1   
    45    15    16 1   
    46    15    27 1   
    47    15    53 1   
    48    16    17 1   
    49    16    54 1   
    50    16    55 1   
    51    17    18 1   
    52    17    56 1   
    53    17    57 1   
    54    18    20 1   
    55    18    21 1   
    56    19    26 2   
    57    20    58 1   
    58    20    59 1   
    59    20    60 1   
    60    21    22 1   
    61    21    61 1   
    62    22    23 1   
    63    22    62 1   
    64    22    63 1   
    65    23    24 1   
    66    23    64 1   
    67    23    65 1   
    68    24    25 1   
    69    25    66 1   
    70    25    67 1   
    71    25    68 1   
    72    27    69 1   
@<TRIPOS>SUBSTRUCTURE
     1 WU5         1 TEMP              0 ****  ****    0 ROOT
