@<TRIPOS>MOLECULE
WU6
   68    70     1     0     0
SMALL
abcg2


@<TRIPOS>ATOM
      1 C12        -26.5170     8.3750   -20.2300 c          1 WU6       0.612700
      2 C11        -27.0020     8.9270   -21.5140 ca         1 WU6      -0.162600
      3 C10        -26.2820     8.6510   -22.6670 ca         1 WU6      -0.041000
      4 C19        -30.6310    11.4060   -22.0690 c          1 WU6       0.554600
      5 C17        -28.5790    10.2250   -22.8050 ca         1 WU6      -0.068000
      6 C15        -26.9220     8.2200   -17.9160 c3         1 WU6       0.154900
      7 C16        -28.1530     9.7160   -21.5890 ca         1 WU6      -0.057000
      8 C01        -27.6260    13.4610   -25.2550 c3         1 WU6      -0.090100
      9 C03        -26.4750    11.4220   -26.3530 c3         1 WU6      -0.102400
     10 C04        -27.6250    10.4190   -26.3400 c3         1 WU6       0.189300
     11 C05        -28.6520    10.6460   -27.4370 c3         1 WU6      -0.075400
     12 C06        -29.7120     9.5570   -27.5160 c3         1 WU6      -0.088100
     13 C08        -27.8410     9.9330   -23.9750 ca         1 WU6       0.140100
     14 C09        -26.6960     9.1510   -23.8910 ca         1 WU6      -0.201000
     15 C21        -31.6440    12.3200   -22.6200 cc         1 WU6       0.112500
     16 C25        -34.4090    14.4920   -22.8640 ca         1 WU6      -0.019200
     17 C26        -34.2290    15.8610   -23.0080 ca         1 WU6      -0.138000
     18 C27        -35.3260    16.7090   -22.9270 ca         1 WU6       0.114100
     19 C30        -36.5840    16.1550   -22.6970 ca         1 WU6      -0.093000
     20 C31        -36.7530    14.7890   -22.5550 ca         1 WU6      -0.157000
     21 C32        -35.6620    13.9260   -22.6430 ca         1 WU6       0.123100
     22 C35        -32.7040    12.9190   -21.9730 cd         1 WU6      -0.062300
     23 C36        -33.1910    12.8810   -20.5750 c3         1 WU6      -0.031800
     24 N18        -29.6980    11.0380   -22.9780 ns         1 WU6      -0.125000
     25 N22        -31.6450    12.7230   -23.9110 nc         1 WU6      -0.355000
     26 N23        -32.6240    13.5150   -24.1110 nd         1 WU6      -0.177800
     27 N24        -33.2760    13.6460   -22.9530 na         1 WU6       0.214000
     28 O07        -28.3450    10.4500   -25.0990 os         1 WU6      -0.364100
     29 O13        -25.5140     7.7120   -20.1160 o          1 WU6      -0.499000
     30 O14        -27.3020     8.6880   -19.2080 os         1 WU6      -0.434100
     31 O20        -30.6620    11.0440   -20.9040 o          1 WU6      -0.600100
     32 O28        -35.2650    18.0490   -23.0480 os         1 WU6      -0.336100
     33 O33        -35.7160    12.5900   -22.5300 os         1 WU6      -0.331100
     34 H1         -25.3880     8.0430   -22.6230 ha         1 WU6       0.134000
     35 H2         -27.6830     8.5820   -17.2320 h1         1 WU6       0.046700
     36 H3         -26.8930     7.1310   -17.8790 h1         1 WU6       0.046700
     37 H4         -25.9510     8.6140   -17.6180 h1         1 WU6       0.046700
     38 H5         -28.7130     9.9400   -20.6970 ha         1 WU6       0.165000
     39 H6         -27.6690    14.5490   -25.3050 hc         1 WU6       0.036700
     40 H7         -28.6530    13.0990   -25.2400 hc         1 WU6       0.036700
     41 H8         -27.1650    13.1960   -24.3010 hc         1 WU6       0.036700
     42 H9         -25.8860    13.4520   -26.4990 hc         1 WU6       0.035700
     43 H10        -27.3560    13.1210   -27.3640 hc         1 WU6       0.035700
     44 H11        -25.8340    11.2540   -25.4820 hc         1 WU6       0.048700
     45 H12        -25.8570    11.1690   -27.2190 hc         1 WU6       0.048700
     46 H13        -27.2100     9.4130   -26.4770 h1         1 WU6       0.041700
     47 H14        -28.1050    10.6950   -28.3820 hc         1 WU6       0.053700
     48 H15        -29.1270    11.6220   -27.3070 hc         1 WU6       0.053700
     49 H16        -30.3710     9.7230   -28.3690 hc         1 WU6       0.038033
     50 H17        -29.2600     8.5710   -27.6360 hc         1 WU6       0.038033
     51 H18        -30.3360     9.5340   -26.6230 hc         1 WU6       0.038033
     52 H19        -26.1160     8.9190   -24.7730 ha         1 WU6       0.121000
     53 H20        -33.2250    16.2300   -23.1710 ha         1 WU6       0.140000
     54 H21        -34.1760    19.7190   -23.3240 h1         1 WU6       0.044700
     55 H22        -33.3140    18.4530   -22.4320 h1         1 WU6       0.044700
     56 H23        -33.5390    18.3100   -24.1900 h1         1 WU6       0.044700
     57 H24        -37.4470    16.8060   -22.6270 ha         1 WU6       0.134000
     58 H25        -37.7500    14.4090   -22.3810 ha         1 WU6       0.128000
     59 H26        -36.7870    10.9160   -22.2080 h1         1 WU6       0.046367
     60 H27        -37.4030    12.3290   -21.3320 h1         1 WU6       0.046367
     61 H28        -37.6830    12.1710   -23.0820 h1         1 WU6       0.046367
     62 H29        -33.8430    12.0220   -20.4170 hc         1 WU6       0.066700
     63 H30        -32.3550    12.7950   -19.8870 hc         1 WU6       0.066700
     64 H31        -33.7530    13.7790   -20.3280 hc         1 WU6       0.066700
     65 H32        -29.8300    11.3990   -23.9130 hn         1 WU6       0.193000
     66 C02        -26.8300    12.9060   -26.4300 c3         1 WU6      -0.066400
     67 C29        -34.0030    18.6470   -23.2590 c3         1 WU6       0.144900
     68 C34        -36.9700    11.9850   -22.2750 c3         1 WU6       0.146900
@<TRIPOS>BOND
     1     1     2 1   
     2     1    29 2   
     3     1    30 1   
     4     2     3 ar  
     5     2     7 ar  
     6     3    14 ar  
     7     3    34 1   
     8     4    15 1   
     9     4    24 1   
    10     4    31 2   
    11     5     7 ar  
    12     5    13 ar  
    13     5    24 1   
    14     6    30 1   
    15     6    35 1   
    16     6    36 1   
    17     6    37 1   
    18     7    38 1   
    19     8    39 1   
    20     8    40 1   
    21     8    41 1   
    22     8    66 1   
    23     9    10 1   
    24     9    44 1   
    25     9    45 1   
    26     9    66 1   
    27    10    11 1   
    28    10    28 1   
    29    10    46 1   
    30    11    12 1   
    31    11    47 1   
    32    11    48 1   
    33    12    49 1   
    34    12    50 1   
    35    12    51 1   
    36    13    14 ar  
    37    13    28 1   
    38    14    52 1   
    39    15    22 2   
    40    15    25 1   
    41    16    17 ar  
    42    16    21 ar  
    43    16    27 1   
    44    17    18 ar  
    45    17    53 1   
    46    18    19 ar  
    47    18    32 1   
    48    19    20 ar  
    49    19    57 1   
    50    20    21 ar  
    51    20    58 1   
    52    21    33 1   
    53    22    23 1   
    54    22    27 1   
    55    23    62 1   
    56    23    63 1   
    57    23    64 1   
    58    24    65 1   
    59    25    26 2   
    60    26    27 1   
    61    32    67 1   
    62    33    68 1   
    63    42    66 1   
    64    43    66 1   
    65    54    67 1   
    66    55    67 1   
    67    56    67 1   
    68    59    68 1   
    69    60    68 1   
    70    61    68 1   
@<TRIPOS>SUBSTRUCTURE
     1 WU6         1 TEMP              0 ****  ****    0 ROOT
