@<TRIPOS>MOLECULE
WU6
   68    70     1     0     0
SMALL
No Charge or Current Charge


@<TRIPOS>ATOM
      1 C12        -26.4710     8.3910   -20.1620 c          1 WU6       0.612700
      2 C11        -26.9740     8.9010   -21.4950 ca         1 WU6      -0.162600
      3 C10        -26.2790     8.5680   -22.6750 ca         1 WU6      -0.041000
      4 C19        -30.6330    11.5720   -22.0990 c          1 WU6       0.554600
      5 C17        -28.5890    10.1770   -22.8400 ca         1 WU6      -0.068000
      6 C15        -26.8410     8.3500   -17.7780 c3         1 WU6       0.154900
      7 C16        -28.1330     9.7080   -21.5870 ca         1 WU6      -0.057000
      8 C01        -27.7010    13.2990   -25.0130 c3         1 WU6      -0.090100
      9 C03        -26.4530    11.3970   -26.3140 c3         1 WU6      -0.102400
     10 C04        -27.5920    10.3390   -26.4360 c3         1 WU6       0.189300
     11 C05        -28.5760    10.6140   -27.5990 c3         1 WU6      -0.075400
     12 C06        -29.6070     9.4860   -27.8200 c3         1 WU6      -0.088100
     13 C08        -27.8780     9.8370   -24.0090 ca         1 WU6       0.140100
     14 C09        -26.7270     9.0290   -23.9220 ca         1 WU6      -0.201000
     15 C21        -31.6890    12.3750   -22.7930 cc         1 WU6       0.112500
     16 C25        -34.4640    14.4330   -22.9770 ca         1 WU6      -0.019200
     17 C26        -34.2730    15.8290   -23.0150 ca         1 WU6      -0.138000
     18 C27        -35.3560    16.7000   -22.7690 ca         1 WU6       0.114100
     19 C30        -36.6230    16.1650   -22.4870 ca         1 WU6      -0.093000
     20 C31        -36.8210    14.7740   -22.4490 ca         1 WU6      -0.157000
     21 C32        -35.7410    13.8970   -22.6960 ca         1 WU6       0.123100
     22 C35        -32.6890    13.0600   -22.1490 cd         1 WU6      -0.062300
     23 C36        -33.0150    13.2210   -20.6760 c3         1 WU6      -0.031800
     24 N18        -29.7440    10.9970   -22.9980 ns         1 WU6      -0.125000
     25 N22        -31.7890    12.5320   -24.1630 nc         1 WU6      -0.355000
     26 N23        -32.8210    13.2950   -24.4270 nd         1 WU6      -0.177800
     27 N24        -33.3820    13.5870   -23.2200 na         1 WU6       0.214000
     28 O07        -28.3620    10.3100   -25.2170 os         1 WU6      -0.364100
     29 O13        -25.4710     7.6910   -20.0540 o          1 WU6      -0.499000
     30 O14        -27.2360     8.7840   -19.0930 os         1 WU6      -0.434100
     31 O20        -30.5540    11.4370   -20.8800 o          1 WU6      -0.600100
     32 O28        -35.2260    18.0750   -22.7920 os         1 WU6      -0.336100
     33 O33        -35.8920    12.5220   -22.6650 os         1 WU6      -0.331100
     34 H1         -25.3870     7.9450   -22.6300 ha         1 WU6       0.134000
     35 H2         -27.5390     8.7360   -17.0240 h1         1 WU6       0.046700
     36 H3         -26.8400     7.2550   -17.7110 h1         1 WU6       0.046700
     37 H4         -25.8360     8.7160   -17.5300 h1         1 WU6       0.046700
     38 H5         -28.6720     9.9620   -20.6800 ha         1 WU6       0.165000
     39 H6         -27.7890    14.3910   -24.9560 hc         1 WU6       0.036700
     40 H7         -28.7140    12.8870   -25.0760 hc         1 WU6       0.036700
     41 H8         -27.2330    12.9460   -24.0860 hc         1 WU6       0.036700
     42 H9         -25.9400    13.4930   -26.2320 hc         1 WU6       0.035700
     43 H10        -27.3940    13.1830   -27.1550 hc         1 WU6       0.035700
     44 H11        -25.8290    11.1620   -25.4440 hc         1 WU6       0.048700
     45 H12        -25.7960    11.2740   -27.1840 hc         1 WU6       0.048700
     46 H13        -27.1380     9.3570   -26.6240 h1         1 WU6       0.041700
     47 H14        -28.0040    10.7520   -28.5250 hc         1 WU6       0.053700
     48 H15        -29.1150    11.5510   -27.4160 hc         1 WU6       0.053700
     49 H16        -30.2540     9.7210   -28.6730 hc         1 WU6       0.038033
     50 H17        -29.1030     8.5340   -28.0250 hc         1 WU6       0.038033
     51 H18        -30.2430     9.3570   -26.9350 hc         1 WU6       0.038033
     52 H19        -26.1690     8.7430   -24.8080 ha         1 WU6       0.121000
     53 H20        -33.2820    16.2150   -23.2360 ha         1 WU6       0.140000
     54 H21        -34.0940    19.8150   -23.0360 h1         1 WU6       0.044700
     55 H22        -33.2150    18.4460   -22.3250 h1         1 WU6       0.044700
     56 H23        -33.6040    18.4540   -24.0670 h1         1 WU6       0.044700
     57 H24        -37.4570    16.8360   -22.2970 ha         1 WU6       0.134000
     58 H25        -37.8160    14.3980   -22.2280 ha         1 WU6       0.128000
     59 H26        -37.0410    10.7970   -22.4000 h1         1 WU6       0.046367
     60 H27        -37.5070    12.1700   -21.3750 h1         1 WU6       0.046367
     61 H28        -37.9100    12.1720   -23.1130 h1         1 WU6       0.046367
     62 H29        -33.3620    12.2730   -20.2490 hc         1 WU6       0.066700
     63 H30        -32.1300    13.5380   -20.1120 hc         1 WU6       0.066700
     64 H31        -33.7950    13.9690   -20.4920 hc         1 WU6       0.066700
     65 H32        -29.9520    11.2120   -23.9660 hn         1 WU6       0.193000
     66 C02        -26.8600    12.8960   -26.2420 c3         1 WU6      -0.066400
     67 C29        -33.9720    18.7250   -23.0690 c3         1 WU6       0.144900
     68 C34        -37.1500    11.8890   -22.3740 c3         1 WU6       0.146900
@<TRIPOS>BOND
     1     1     2 1   
     2     1    29 2   
     3     1    30 1   
     4     2     3 ar  
     5     2     7 ar  
     6     3    14 ar  
     7     3    34 1   
     8     4    15 1   
     9     4    24 1   
    10     4    31 2   
    11     5     7 ar  
    12     5    13 ar  
    13     5    24 1   
    14     6    30 1   
    15     6    35 1   
    16     6    36 1   
    17     6    37 1   
    18     7    38 1   
    19     8    39 1   
    20     8    40 1   
    21     8    41 1   
    22     8    66 1   
    23     9    10 1   
    24     9    44 1   
    25     9    45 1   
    26     9    66 1   
    27    10    11 1   
    28    10    28 1   
    29    10    46 1   
    30    11    12 1   
    31    11    47 1   
    32    11    48 1   
    33    12    49 1   
    34    12    50 1   
    35    12    51 1   
    36    13    14 ar  
    37    13    28 1   
    38    14    52 1   
    39    15    22 2   
    40    15    25 1   
    41    16    17 ar  
    42    16    21 ar  
    43    16    27 1   
    44    17    18 ar  
    45    17    53 1   
    46    18    19 ar  
    47    18    32 1   
    48    19    20 ar  
    49    19    57 1   
    50    20    21 ar  
    51    20    58 1   
    52    21    33 1   
    53    22    23 1   
    54    22    27 1   
    55    23    62 1   
    56    23    63 1   
    57    23    64 1   
    58    24    65 1   
    59    25    26 2   
    60    26    27 1   
    61    32    67 1   
    62    33    68 1   
    63    42    66 1   
    64    43    66 1   
    65    54    67 1   
    66    55    67 1   
    67    56    67 1   
    68    59    68 1   
    69    60    68 1   
    70    61    68 1   
@<TRIPOS>SUBSTRUCTURE
     1 WU6         1 TEMP              0 ****  ****    0 ROOT
