@<TRIPOS>MOLECULE
WU7
  131   130     1     0     0
SMALL
bcc


@<TRIPOS>ATOM
      1 C5          27.5060    29.3730    36.8300 c3         1 WU7      -0.070400
      2 C7          33.7290    24.0740    33.4220 c3         1 WU7       0.110800
      3 C15         27.1110    29.8630    34.3120 c3         1 WU7      -0.047200
      4 C17         29.9790    28.0940    32.3450 c3         1 WU7       0.167300
      5 C20         28.8080    32.0130    30.3630 c3         1 WU7      -0.074400
      6 C28         28.8370    29.7020    29.4430 c          1 WU7       0.665100
      7 C1          30.0000    29.5510    37.3700 c3         1 WU7      -0.076400
      8 C11         32.2920    22.2650    34.2960 c3         1 WU7       0.101767
      9 C14         35.1150    24.8280    37.3280 c3         1 WU7      -0.077400
     10 C18         28.5410    33.4780    30.0510 c3         1 WU7      -0.077400
     11 C25         26.4070    35.7130    30.4100 c3         1 WU7      -0.072400
     12 C27         29.0530    29.1280    32.9130 c2         1 WU7      -0.228200
     13 C29         22.8560    30.1370    30.5060 c3         1 WU7      -0.074400
     14 C3          28.8450    28.6440    36.9550 c3         1 WU7      -0.074400
     15 C32         22.6940    31.6470    30.6480 c3         1 WU7      -0.068400
     16 C9          27.4190    30.4120    35.7090 c3         1 WU7      -0.068400
     17 N           33.5640    22.5830    33.5870 n4         1 WU7      -0.599800
     18 C           31.3620    28.8610    37.3680 c3         1 WU7      -0.073400
     19 O           32.6030    24.6100    31.3360 os         1 WU7      -0.564200
     20 C10         29.7010    27.8780    30.8530 c3         1 WU7       0.106700
     21 C12         33.5950    21.8600    32.2820 c3         1 WU7       0.101767
     22 C13         34.7090    22.1040    34.4150 c3         1 WU7       0.101767
     23 C16         32.6210    24.8350    32.7260 c3         1 WU7       0.190400
     24 C19         28.3550    34.3010    31.3220 c3         1 WU7      -0.073400
     25 C2          31.8580    28.5010    35.9700 c3         1 WU7      -0.078400
     26 C21         27.7730    35.6950    31.0980 c3         1 WU7      -0.070400
     27 C22         30.5650    26.7920    30.2210 c3         1 WU7       0.195400
     28 C23         29.0520    31.1600    29.1100 c3         1 WU7      -0.164400
     29 C24         36.5120    24.2410    37.1740 c3         1 WU7      -0.080400
     30 C26         28.0870    28.8560    33.7840 c2         1 WU7      -0.136200
     31 C30         24.1450    29.5660    31.0880 c3         1 WU7      -0.075400
     32 C31         25.3480    34.8630    31.1150 c3         1 WU7      -0.043200
     33 C33         24.1720    28.0420    31.0310 c3         1 WU7      -0.071400
     34 C34         23.6980    32.4750    29.8410 c3         1 WU7      -0.046200
     35 C35         25.4210    27.4230    31.6420 c3         1 WU7      -0.078400
     36 C36         36.6920    22.9380    37.9400 c3         1 WU7      -0.091100
     37 C37         24.0240    34.9340    30.4220 c2         1 WU7      -0.174200
     38 C38         23.3450    33.9310    29.8660 c2         1 WU7      -0.161200
     39 C39         25.4150    25.9000    31.6030 c3         1 WU7      -0.073400
     40 C4          33.2910    27.9770    35.9260 c3         1 WU7      -0.077400
     41 C40         26.6640    25.2820    32.2150 c3         1 WU7      -0.093100
     42 C6          33.4960    26.6680    36.6750 c3         1 WU7      -0.076400
     43 C8          34.9180    26.1340    36.5720 c3         1 WU7      -0.082400
     44 N1          29.8440    29.1200    30.1290 ns         1 WU7      -0.568900
     45 O1          30.2920    25.5790    30.8930 os         1 WU7      -0.588200
     46 O2          31.3370    28.4780    32.4600 oh         1 WU7      -0.609800
     47 O3          27.7960    29.1210    29.1680 o          1 WU7      -0.600100
     48 O4          31.5250    24.1530    29.1290 o          1 WU7      -0.798000
     49 O5          30.4960    23.1320    31.3190 o          1 WU7      -0.798000
     50 P           31.1830    24.2380    30.5790 p5         1 WU7       1.380800
     51 H1          27.2980    29.8680    37.7830 hc         1 WU7       0.038700
     52 H2          26.7040    28.6400    36.6960 hc         1 WU7       0.038700
     53 H3          34.6820    24.2270    32.9130 hx         1 WU7       0.081200
     54 H4          33.8220    24.4720    34.4330 hx         1 WU7       0.081200
     55 H5          27.0550    30.7060    33.6170 hc         1 WU7       0.048200
     56 H6          26.1150    29.4090    34.3290 hc         1 WU7       0.048200
     57 H7          29.7940    27.1420    32.8590 h1         1 WU7       0.057700
     58 H8          29.6630    31.9240    31.0380 hc         1 WU7       0.041200
     59 H9          27.9440    31.6190    30.9090 hc         1 WU7       0.041200
     60 H10         30.0520    30.4230    36.7110 hc         1 WU7       0.040200
     61 H11         29.7940    29.9440    38.3710 hc         1 WU7       0.040200
     62 H12         32.2520    22.8300    35.2240 hx         1 WU7       0.095256
     63 H13         31.4490    22.5170    33.6590 hx         1 WU7       0.095256
     64 H14         32.2730    21.1990    34.5130 hx         1 WU7       0.095256
     65 H15         34.3740    24.0960    36.9830 hc         1 WU7       0.032200
     66 H16         34.9010    24.9870    38.3900 hc         1 WU7       0.032200
     67 H17         27.6450    33.5330    29.4250 hc         1 WU7       0.043700
     68 H18         29.3570    33.8970    29.4530 hc         1 WU7       0.043700
     69 H19         26.5020    35.3750    29.3750 hc         1 WU7       0.039700
     70 H20         26.0560    36.7480    30.3520 hc         1 WU7       0.039700
     71 H21         29.1760    30.1490    32.5590 ha         1 WU7       0.123000
     72 H22         22.0090    29.6510    31.0000 hc         1 WU7       0.037200
     73 H23         22.7840    29.8630    29.4480 hc         1 WU7       0.037200
     74 H24         28.7440    27.8480    37.7000 hc         1 WU7       0.038200
     75 H25         29.0840    28.1430    36.0160 hc         1 WU7       0.038200
     76 H26         22.7650    31.9280    31.7040 hc         1 WU7       0.034700
     77 H27         21.6830    31.9200    30.3310 hc         1 WU7       0.034700
     78 H28         28.3400    30.9990    35.6650 hc         1 WU7       0.037700
     79 H29         26.6270    31.1260    35.9530 hc         1 WU7       0.037700
     80 H30         31.3150    27.9650    37.9940 hc         1 WU7       0.037200
     81 H31         32.0970    29.5210    37.8380 hc         1 WU7       0.037200
     82 H32         28.6590    27.5680    30.7620 h1         1 WU7       0.097700
     83 H33         34.4740    22.1720    31.7250 hx         1 WU7       0.095256
     84 H34         33.6490    20.7940    32.4870 hx         1 WU7       0.095256
     85 H35         32.6920    22.0730    31.7240 hx         1 WU7       0.095256
     86 H36         35.6400    22.3520    33.9120 hx         1 WU7       0.095256
     87 H37         34.6740    22.5880    35.3870 hx         1 WU7       0.095256
     88 H38         34.6300    21.0280    34.5400 hx         1 WU7       0.095256
     89 H39         32.8390    25.8910    32.9190 h1         1 WU7       0.054700
     90 H40         31.6580    24.6340    33.2030 h1         1 WU7       0.054700
     91 H41         29.3190    34.3940    31.8300 hc         1 WU7       0.035700
     92 H42         27.7130    33.7470    32.0160 hc         1 WU7       0.035700
     93 H43         31.7900    29.4010    35.3460 hc         1 WU7       0.040700
     94 H44         31.1950    27.7550    35.5180 hc         1 WU7       0.040700
     95 H45         28.4730    36.2920    30.5050 hc         1 WU7       0.036700
     96 H46         27.6900    36.1980    32.0660 hc         1 WU7       0.036700
     97 H47         31.6240    27.0630    30.2840 h1         1 WU7       0.042200
     98 H48         30.3070    26.7180    29.1610 h1         1 WU7       0.042200
     99 H49         28.3480    31.4370    28.3250 hc         1 WU7       0.065200
    100 H50         30.0600    31.3400    28.7290 hc         1 WU7       0.065200
    101 H51         37.2500    24.9740    37.5150 hc         1 WU7       0.038200
    102 H52         36.7190    24.0760    36.1120 hc         1 WU7       0.038200
    103 H53         27.9720    27.8320    34.1330 ha         1 WU7       0.121000
    104 H54         25.0160    29.9650    30.5570 hc         1 WU7       0.038700
    105 H55         24.2470    29.8920    32.1300 hc         1 WU7       0.038700
    106 H56         25.2390    35.2200    32.1460 hc         1 WU7       0.044700
    107 H57         25.6850    33.8280    31.1850 hc         1 WU7       0.044700
    108 H58         23.2870    27.6500    31.5460 hc         1 WU7       0.034200
    109 H59         24.0800    27.7180    29.9880 hc         1 WU7       0.034200
    110 H60         23.6840    32.1220    28.8030 hc         1 WU7       0.048700
    111 H61         24.7110    32.3040    30.2090 hc         1 WU7       0.048700
    112 H62         26.3060    27.7970    31.1190 hc         1 WU7       0.040200
    113 H63         25.5210    27.7560    32.6820 hc         1 WU7       0.040200
    114 H64         37.7000    22.5380    37.8230 hc         1 WU7       0.033367
    115 H65         36.5130    23.0800    39.0070 hc         1 WU7       0.033367
    116 H66         35.9920    22.1760    37.5890 hc         1 WU7       0.033367
    117 H67         23.5910    35.9290    30.3530 ha         1 WU7       0.112000
    118 H68         22.3970    34.1740    29.3920 ha         1 WU7       0.112000
    119 H69         24.5290    25.5300    32.1290 hc         1 WU7       0.033700
    120 H70         25.3110    25.5650    30.5660 hc         1 WU7       0.033700
    121 H71         33.5840    27.8350    34.8800 hc         1 WU7       0.041200
    122 H72         33.9680    28.7380    36.3290 hc         1 WU7       0.041200
    123 H73         26.6180    24.1920    32.2060 hc         1 WU7       0.035367
    124 H74         27.5620    25.5750    31.6700 hc         1 WU7       0.035367
    125 H75         26.7930    25.5990    33.2520 hc         1 WU7       0.035367
    126 H76         32.7970    25.9170    36.2870 hc         1 WU7       0.036200
    127 H77         33.2420    26.7960    37.7320 hc         1 WU7       0.036200
    128 H78         35.6180    26.8860    36.9530 hc         1 WU7       0.039200
    129 H79         35.1790    25.9920    35.5170 hc         1 WU7       0.039200
    130 H80         30.6640    29.6740    30.3280 hn         1 WU7       0.314500
    131 H81         31.5070    28.7310    33.3730 ho         1 WU7       0.397000
@<TRIPOS>BOND
     1     1    14 1   
     2     1    16 1   
     3     1    51 1   
     4     1    52 1   
     5     2    17 1   
     6     2    23 1   
     7     2    53 1   
     8     2    54 1   
     9     3    16 1   
    10     3    30 1   
    11     3    55 1   
    12     3    56 1   
    13     4    12 1   
    14     4    20 1   
    15     4    46 1   
    16     4    57 1   
    17     5    10 1   
    18     5    28 1   
    19     5    58 1   
    20     5    59 1   
    21     6    28 1   
    22     6    44 1   
    23     6    47 2   
    24     7    14 1   
    25     7    18 1   
    26     7    60 1   
    27     7    61 1   
    28     8    17 1   
    29     8    62 1   
    30     8    63 1   
    31     8    64 1   
    32     9    29 1   
    33     9    43 1   
    34     9    65 1   
    35     9    66 1   
    36    10    24 1   
    37    10    67 1   
    38    10    68 1   
    39    11    26 1   
    40    11    32 1   
    41    11    69 1   
    42    11    70 1   
    43    12    30 2   
    44    12    71 1   
    45    13    15 1   
    46    13    31 1   
    47    13    72 1   
    48    13    73 1   
    49    14    74 1   
    50    14    75 1   
    51    15    34 1   
    52    15    76 1   
    53    15    77 1   
    54    16    78 1   
    55    16    79 1   
    56    17    21 1   
    57    17    22 1   
    58    18    25 1   
    59    18    80 1   
    60    18    81 1   
    61    19    23 1   
    62    19    50 1   
    63    20    27 1   
    64    20    44 1   
    65    20    82 1   
    66    21    83 1   
    67    21    84 1   
    68    21    85 1   
    69    22    86 1   
    70    22    87 1   
    71    22    88 1   
    72    23    89 1   
    73    23    90 1   
    74    24    26 1   
    75    24    91 1   
    76    24    92 1   
    77    25    40 1   
    78    25    93 1   
    79    25    94 1   
    80    26    95 1   
    81    26    96 1   
    82    27    45 1   
    83    27    97 1   
    84    27    98 1   
    85    28    99 1   
    86    28   100 1   
    87    29    36 1   
    88    29   101 1   
    89    29   102 1   
    90    30   103 1   
    91    31    33 1   
    92    31   104 1   
    93    31   105 1   
    94    32    37 1   
    95    32   106 1   
    96    32   107 1   
    97    33    35 1   
    98    33   108 1   
    99    33   109 1   
   100    34    38 1   
   101    34   110 1   
   102    34   111 1   
   103    35    39 1   
   104    35   112 1   
   105    35   113 1   
   106    36   114 1   
   107    36   115 1   
   108    36   116 1   
   109    37    38 2   
   110    37   117 1   
   111    38   118 1   
   112    39    41 1   
   113    39   119 1   
   114    39   120 1   
   115    40    42 1   
   116    40   121 1   
   117    40   122 1   
   118    41   123 1   
   119    41   124 1   
   120    41   125 1   
   121    42    43 1   
   122    42   126 1   
   123    42   127 1   
   124    43   128 1   
   125    43   129 1   
   126    44   130 1   
   127    45    50 1   
   128    46   131 1   
   129    48    50 1   
   130    49    50 1   
@<TRIPOS>SUBSTRUCTURE
     1 WU7         1 TEMP              0 ****  ****    0 ROOT
