@<TRIPOS>MOLECULE
WU7
  131   130     1     0     0
SMALL
No Charge or Current Charge


@<TRIPOS>ATOM
      1 C5          29.7480    29.4480    38.2340 c3         1 WU7      -0.070400
      2 C7          31.4970    24.3790    34.1340 c3         1 WU7       0.082600
      3 C15         28.7160    29.4370    35.8190 c3         1 WU7      -0.047200
      4 C17         31.2570    29.2230    32.7930 c3         1 WU7       0.190500
      5 C20         27.4010    32.3050    30.7350 c3         1 WU7      -0.074400
      6 C28         28.9650    30.4180    30.0870 c          1 WU7       0.598100
      7 C1          32.2280    29.1700    37.4820 c3         1 WU7      -0.076400
      8 C11         31.3680    22.2270    32.8080 c3         1 WU7       0.073567
      9 C14         35.5530    22.9430    37.4870 c3         1 WU7      -0.077400
     10 C18         26.7930    33.6710    30.3560 c3         1 WU7      -0.077400
     11 C25         24.1810    35.4860    29.6920 c3         1 WU7      -0.072400
     12 C27         30.2400    29.6840    33.8130 c2         1 WU7      -0.278200
     13 C29         22.9710    29.7160    28.7270 c3         1 WU7      -0.074400
     14 C3          30.9300    28.4820    37.9770 c3         1 WU7      -0.074400
     15 C32         22.2070    31.0250    28.4110 c3         1 WU7      -0.068400
     16 C9          29.2420    30.2660    37.0160 c3         1 WU7      -0.068400
     17 N           32.2200    23.0580    33.7790 n4         1 WU7      -0.487000
     18 C           33.3990    28.1900    37.2350 c3         1 WU7      -0.073400
     19 O           32.1620    25.9710    32.4080 os         1 WU7      -0.587400
     20 C10         30.6110    29.0130    31.3910 c3         1 WU7       0.106700
     21 C12         33.5920    23.3290    33.1480 c3         1 WU7       0.073567
     22 C13         32.4280    22.2480    35.0660 c3         1 WU7       0.073567
     23 C16         31.0220    25.3490    33.0180 c3         1 WU7       0.213600
     24 C19         25.7070    34.1420    31.3540 c3         1 WU7      -0.073400
     25 C2          33.2180    27.2990    35.9800 c3         1 WU7      -0.078400
     26 C21         25.0380    35.4920    30.9850 c3         1 WU7      -0.070400
     27 C22         31.5520    28.3350    30.3550 c3         1 WU7       0.218600
     28 C23         28.5440    31.8590    29.7910 c3         1 WU7      -0.164400
     29 C24         36.6330    21.8850    37.1710 c3         1 WU7      -0.080400
     30 C26         29.8040    28.9770    34.8670 c2         1 WU7      -0.186200
     31 C30         23.8900    29.7990    29.9690 c3         1 WU7      -0.075400
     32 C31         22.8840    34.6510    29.7850 c3         1 WU7      -0.043200
     33 C33         24.6170    28.4690    30.2730 c3         1 WU7      -0.071400
     34 C34         23.0870    32.1650    27.8510 c3         1 WU7      -0.046200
     35 C35         25.4800    28.5250    31.5540 c3         1 WU7      -0.078400
     36 C36         36.6560    20.7250    38.1860 c3         1 WU7      -0.091100
     37 C37         22.2100    34.5000    28.4340 c2         1 WU7      -0.224200
     38 C38         22.2860    33.4350    27.6160 c2         1 WU7      -0.211200
     39 C39         26.2610    27.2180    31.8160 c3         1 WU7      -0.073400
     40 C4          34.3730    26.2980    35.7400 c3         1 WU7      -0.077400
     41 C40         27.1450    27.2900    33.0750 c3         1 WU7      -0.093100
     42 C6          34.4280    25.1460    36.7720 c3         1 WU7      -0.076400
     43 C8          35.5280    24.1050    36.4700 c3         1 WU7      -0.082400
     44 N1          30.0810    30.2910    30.8790 ns         1 WU7      -0.501900
     45 O1          31.3010    26.9180    30.3180 os         1 WU7      -0.611400
     46 O2          32.2750    30.2260    32.7350 oh         1 WU7      -0.672000
     47 O3          28.3650    29.4520    29.6420 o          1 WU7      -0.600100
     48 O4          33.7800    26.2770    30.4390 o          1 WU7      -0.798000
     49 O5          32.0900    24.4850    30.3210 o          1 WU7      -0.798000
     50 P           32.4020    25.8540    30.8200 p5         1 WU7       1.380800
     51 H1          30.0370    30.1500    39.0260 hc         1 WU7       0.038700
     52 H2          28.9090    28.8670    38.6360 hc         1 WU7       0.038700
     53 H3          32.1530    24.9340    34.8060 hx         1 WU7       0.081200
     54 H4          30.6110    24.0960    34.7060 hx         1 WU7       0.081200
     55 H5          28.0080    30.0650    35.2640 hc         1 WU7       0.048200
     56 H6          28.1320    28.5820    36.1810 hc         1 WU7       0.048200
     57 H7          31.6890    28.2740    33.1310 h1         1 WU7       0.057700
     58 H8          27.7800    32.3420    31.7640 hc         1 WU7       0.041200
     59 H9          26.6040    31.5530    30.7170 hc         1 WU7       0.041200
     60 H10         32.0340    29.7290    36.5590 hc         1 WU7       0.040200
     61 H11         32.5410    29.9060    38.2330 hc         1 WU7       0.040200
     62 H12         30.3940    22.0280    33.2610 hx         1 WU7       0.095256
     63 H13         31.2370    22.7810    31.8770 hx         1 WU7       0.095256
     64 H14         31.8770    21.2830    32.6010 hx         1 WU7       0.095256
     65 H15         34.5690    22.4560    37.5050 hc         1 WU7       0.032200
     66 H16         35.7290    23.3480    38.4920 hc         1 WU7       0.032200
     67 H17         26.3650    33.5910    29.3500 hc         1 WU7       0.043700
     68 H18         27.5890    34.4250    30.3080 hc         1 WU7       0.043700
     69 H19         24.7850    35.1300    28.8500 hc         1 WU7       0.039700
     70 H20         23.9070    36.5210    29.4490 hc         1 WU7       0.039700
     71 H21         29.8270    30.6740    33.6160 ha         1 WU7       0.173000
     72 H22         22.2340    28.9190    28.8920 hc         1 WU7       0.037200
     73 H23         23.5610    29.4190    27.8510 hc         1 WU7       0.037200
     74 H24         31.1520    27.9590    38.9150 hc         1 WU7       0.038200
     75 H25         30.6120    27.7080    37.2730 hc         1 WU7       0.038200
     76 H26         21.6960    31.3720    29.3190 hc         1 WU7       0.034700
     77 H27         21.4210    30.8020    27.6780 hc         1 WU7       0.034700
     78 H28         30.0210    30.9570    36.6730 hc         1 WU7       0.037700
     79 H29         28.4190    30.8990    37.3710 hc         1 WU7       0.037700
     80 H30         33.5300    27.5670    38.1270 hc         1 WU7       0.037200
     81 H31         34.3220    28.7720    37.1200 hc         1 WU7       0.037200
     82 H32         29.7560    28.3380    31.5330 h1         1 WU7       0.097700
     83 H33         34.1680    23.9820    33.8040 hx         1 WU7       0.095256
     84 H34         34.1190    22.3820    33.0120 hx         1 WU7       0.095256
     85 H35         33.4580    23.8100    32.1800 hx         1 WU7       0.095256
     86 H36         33.0510    22.8200    35.7560 hx         1 WU7       0.095256
     87 H37         31.4580    22.0440    35.5260 hx         1 WU7       0.095256
     88 H38         32.9240    21.3060    34.8230 hx         1 WU7       0.095256
     89 H39         30.3830    26.1160    33.4720 h1         1 WU7       0.054700
     90 H40         30.4060    24.8040    32.2910 h1         1 WU7       0.054700
     91 H41         26.1710    34.2500    32.3430 hc         1 WU7       0.035700
     92 H42         24.9450    33.3620    31.4610 hc         1 WU7       0.035700
     93 H43         33.1330    27.9480    35.1000 hc         1 WU7       0.040700
     94 H44         32.2780    26.7410    36.0480 hc         1 WU7       0.040700
     95 H45         25.8210    36.2540    30.8830 hc         1 WU7       0.036700
     96 H46         24.4060    35.8140    31.8220 hc         1 WU7       0.036700
     97 H47         32.5980    28.5680    30.5940 h1         1 WU7       0.042200
     98 H48         31.3490    28.7560    29.3610 h1         1 WU7       0.042200
     99 H49         28.1890    31.9160    28.7550 hc         1 WU7       0.065200
    100 H50         29.3900    32.5390    29.9440 hc         1 WU7       0.065200
    101 H51         37.6200    22.3660    37.1560 hc         1 WU7       0.038200
    102 H52         36.4600    21.4770    36.1670 hc         1 WU7       0.038200
    103 H53         30.1890    27.9750    35.0600 ha         1 WU7       0.171000
    104 H54         24.6400    30.5840    29.8170 hc         1 WU7       0.038700
    105 H55         23.2910    30.0920    30.8400 hc         1 WU7       0.038700
    106 H56         22.1970    35.1290    30.4940 hc         1 WU7       0.044700
    107 H57         23.1040    33.6650    30.2070 hc         1 WU7       0.044700
    108 H58         23.8760    27.6660    30.3770 hc         1 WU7       0.034200
    109 H59         25.2550    28.2080    29.4190 hc         1 WU7       0.034200
    110 H60         23.5460    31.8380    26.9100 hc         1 WU7       0.048700
    111 H61         23.9210    32.3590    28.5360 hc         1 WU7       0.048700
    112 H62         26.1910    29.3540    31.4750 hc         1 WU7       0.040200
    113 H63         24.8340    28.7390    32.4150 hc         1 WU7       0.040200
    114 H64         37.4370    20.0010    37.9220 hc         1 WU7       0.033367
    115 H65         36.8620    21.0980    39.1960 hc         1 WU7       0.033367
    116 H66         35.6920    20.2020    38.1990 hc         1 WU7       0.033367
    117 H67         21.6030    35.3610    28.1450 ha         1 WU7       0.162000
    118 H68         21.7450    33.4440    26.6680 ha         1 WU7       0.162000
    119 H69         25.5560    26.3840    31.9190 hc         1 WU7       0.033700
    120 H70         26.8980    26.9960    30.9500 hc         1 WU7       0.033700
    121 H71         34.2540    25.8730    34.7370 hc         1 WU7       0.041200
    122 H72         35.3290    26.8370    35.7380 hc         1 WU7       0.041200
    123 H73         27.7050    26.3560    33.2060 hc         1 WU7       0.035367
    124 H74         27.8630    28.1130    32.9900 hc         1 WU7       0.035367
    125 H75         26.5340    27.4550    33.9710 hc         1 WU7       0.035367
    126 H76         33.4530    24.6450    36.8030 hc         1 WU7       0.036200
    127 H77         34.6050    25.5580    37.7720 hc         1 WU7       0.036200
    128 H78         36.5060    24.6050    36.4680 hc         1 WU7       0.039200
    129 H79         35.3790    23.6960    35.4650 hc         1 WU7       0.039200
    130 H80         30.5260    31.1440    31.1960 hn         1 WU7       0.314500
    131 H81         32.5440    30.3950    33.6620 ho         1 WU7       0.436000
@<TRIPOS>BOND
     1     1    14 1   
     2     1    16 1   
     3     1    51 1   
     4     1    52 1   
     5     2    17 1   
     6     2    23 1   
     7     2    53 1   
     8     2    54 1   
     9     3    16 1   
    10     3    30 1   
    11     3    55 1   
    12     3    56 1   
    13     4    12 1   
    14     4    20 1   
    15     4    46 1   
    16     4    57 1   
    17     5    10 1   
    18     5    28 1   
    19     5    58 1   
    20     5    59 1   
    21     6    28 1   
    22     6    44 1   
    23     6    47 2   
    24     7    14 1   
    25     7    18 1   
    26     7    60 1   
    27     7    61 1   
    28     8    17 1   
    29     8    62 1   
    30     8    63 1   
    31     8    64 1   
    32     9    29 1   
    33     9    43 1   
    34     9    65 1   
    35     9    66 1   
    36    10    24 1   
    37    10    67 1   
    38    10    68 1   
    39    11    26 1   
    40    11    32 1   
    41    11    69 1   
    42    11    70 1   
    43    12    30 2   
    44    12    71 1   
    45    13    15 1   
    46    13    31 1   
    47    13    72 1   
    48    13    73 1   
    49    14    74 1   
    50    14    75 1   
    51    15    34 1   
    52    15    76 1   
    53    15    77 1   
    54    16    78 1   
    55    16    79 1   
    56    17    21 1   
    57    17    22 1   
    58    18    25 1   
    59    18    80 1   
    60    18    81 1   
    61    19    23 1   
    62    19    50 1   
    63    20    27 1   
    64    20    44 1   
    65    20    82 1   
    66    21    83 1   
    67    21    84 1   
    68    21    85 1   
    69    22    86 1   
    70    22    87 1   
    71    22    88 1   
    72    23    89 1   
    73    23    90 1   
    74    24    26 1   
    75    24    91 1   
    76    24    92 1   
    77    25    40 1   
    78    25    93 1   
    79    25    94 1   
    80    26    95 1   
    81    26    96 1   
    82    27    45 1   
    83    27    97 1   
    84    27    98 1   
    85    28    99 1   
    86    28   100 1   
    87    29    36 1   
    88    29   101 1   
    89    29   102 1   
    90    30   103 1   
    91    31    33 1   
    92    31   104 1   
    93    31   105 1   
    94    32    37 1   
    95    32   106 1   
    96    32   107 1   
    97    33    35 1   
    98    33   108 1   
    99    33   109 1   
   100    34    38 1   
   101    34   110 1   
   102    34   111 1   
   103    35    39 1   
   104    35   112 1   
   105    35   113 1   
   106    36   114 1   
   107    36   115 1   
   108    36   116 1   
   109    37    38 2   
   110    37   117 1   
   111    38   118 1   
   112    39    41 1   
   113    39   119 1   
   114    39   120 1   
   115    40    42 1   
   116    40   121 1   
   117    40   122 1   
   118    41   123 1   
   119    41   124 1   
   120    41   125 1   
   121    42    43 1   
   122    42   126 1   
   123    42   127 1   
   124    43   128 1   
   125    43   129 1   
   126    44   130 1   
   127    45    50 1   
   128    46   131 1   
   129    48    50 1   
   130    49    50 1   
@<TRIPOS>SUBSTRUCTURE
     1 WU7         1 TEMP              0 ****  ****    0 ROOT
