@<TRIPOS>MOLECULE
WUA
  151   150     1     0     0
SMALL
No Charge or Current Charge


@<TRIPOS>ATOM
      1 N           35.0650    19.9870    27.5830 n4         1 WUA      -0.490000
      2 C           24.6800    31.8070    32.6750 c3         1 WUA      -0.073400
      3 O           34.1280    19.5890    31.3120 os         1 WUA      -0.570400
      4 C1          26.1040    32.0090    32.1060 c3         1 WUA      -0.076400
      5 C10         22.3970    34.3350    28.3760 c3         1 WUA      -0.074400
      6 C11         31.5460    28.5730    31.2860 c3         1 WUA      -0.080400
      7 C12         21.3280    33.2150    28.2890 c3         1 WUA      -0.073400
      8 C13         32.9690    28.7660    30.7120 c3         1 WUA      -0.070400
      9 C14         21.4520    32.3060    27.0360 c3         1 WUA      -0.071400
     10 C15         33.9650    27.6450    31.0920 c3         1 WUA      -0.076400
     11 C16         22.8050    31.5630    26.8680 c3         1 WUA      -0.072400
     12 C17         33.5940    26.2500    30.5400 c3         1 WUA      -0.066400
     13 C18         33.0640    27.0140    38.0060 c3         1 WUA      -0.072400
     14 C19         23.1570    30.5890    28.0180 c3         1 WUA      -0.077400
     15 C2          23.7610    33.0510    32.5910 c3         1 WUA      -0.072400
     16 C20         32.7580    25.8270    38.9500 c3         1 WUA      -0.071400
     17 C21         31.8540    27.5010    37.1750 c3         1 WUA      -0.077400
     18 C22         32.2930    24.5120    38.2720 c3         1 WUA      -0.072400
     19 C23         32.1150    28.8580    36.4850 c3         1 WUA      -0.076400
     20 C24         33.2790    23.8790    37.2580 c3         1 WUA      -0.075400
     21 C25         30.9390    29.3310    35.6000 c3         1 WUA      -0.072400
     22 C26         34.6400    25.1640    30.8800 c3         1 WUA      -0.159400
     23 C27         24.5700    29.9810    27.8880 c3         1 WUA      -0.076400
     24 C28         34.4910    20.2370    28.9910 c3         1 WUA       0.044600
     25 C29         33.7890    22.7290    32.6330 c3         1 WUA       0.088700
     26 C3          26.9920    30.7550    32.2600 c3         1 WUA      -0.076400
     27 C30         34.7160    23.6750    37.8010 c3         1 WUA      -0.068400
     28 C31         31.0600    30.7920    35.1040 c3         1 WUA      -0.073400
     29 C32         35.1940    22.1850    33.0650 c3         1 WUA       0.187500
     30 C33         35.5770    22.6910    36.9780 c3         1 WUA      -0.043200
     31 C34         34.3750    18.7810    26.9280 c3         1 WUA       0.076900
     32 C35         36.5790    19.7380    27.6570 c3         1 WUA       0.076900
     33 C36         34.8100    21.2330    26.7250 c3         1 WUA       0.076900
     34 C37         32.3310    31.0910    34.2760 c3         1 WUA      -0.076400
     35 C39         24.9430    29.0660    29.0740 c3         1 WUA      -0.077400
     36 C4          23.6020    33.6230    31.1640 c3         1 WUA      -0.078400
     37 C40         34.6170    19.1160    30.0510 c3         1 WUA       0.229600
     38 C41         32.6030    21.9250    33.2640 c3         1 WUA       0.228600
     39 C42         35.3090    21.9930    34.5610 c2         1 WUA      -0.256200
     40 C43         35.5440    22.9430    35.4840 c2         1 WUA      -0.215200
     41 C44         32.3280    32.5060    33.6580 c3         1 WUA      -0.075400
     42 C45         26.3790    28.5130    28.9850 c3         1 WUA      -0.089100
     43 C46         33.5750    32.7920    32.8000 c3         1 WUA      -0.091100
     44 C5          28.3740    30.9080    31.5900 c3         1 WUA      -0.074400
     45 C6          22.3740    34.5500    30.9980 c3         1 WUA      -0.073400
     46 C7          29.2460    29.6410    31.7170 c3         1 WUA      -0.076400
     47 C8          22.2810    35.2540    29.6190 c3         1 WUA      -0.070400
     48 C9          30.6310    29.7950    31.0550 c3         1 WUA      -0.075400
     49 N1          33.6230    22.8720    31.1690 ns         1 WUA      -0.526900
     50 O1          32.6580    20.4950    33.0340 os         1 WUA      -0.598400
     51 O2          36.2490    23.0530    32.6480 oh         1 WUA      -0.669000
     52 O3          34.2700    23.5380    29.1390 o          1 WUA      -0.654100
     53 O4          31.8500    18.4850    31.6700 o          1 WUA      -0.795000
     54 O5          31.9420    20.7170    30.5910 o          1 WUA      -0.795000
     55 P           32.5560    19.7940    31.5840 p5         1 WUA       1.385800
     56 H1          24.7550    31.5000    33.7260 hc         1 WUA       0.037200
     57 H2          24.1980    30.9780    32.1420 hc         1 WUA       0.037200
     58 H3          26.0370    32.2600    31.0400 hc         1 WUA       0.038200
     59 H4          26.5820    32.8580    32.6090 hc         1 WUA       0.038200
     60 H5          22.3260    34.9580    27.4760 hc         1 WUA       0.037200
     61 H6          23.4000    33.8950    28.3620 hc         1 WUA       0.037200
     62 H7          31.6170    28.3730    32.3620 hc         1 WUA       0.041700
     63 H8          31.0790    27.6920    30.8290 hc         1 WUA       0.041700
     64 H9          21.3630    32.5920    29.1890 hc         1 WUA       0.038200
     65 H10         20.3340    33.6800    28.2810 hc         1 WUA       0.038200
     66 H11         32.9130    28.8490    29.6200 hc         1 WUA       0.034700
     67 H12         33.3730    29.7180    31.0780 hc         1 WUA       0.034700
     68 H13         20.6440    31.5650    27.0610 hc         1 WUA       0.035700
     69 H14         21.2800    32.9180    26.1420 hc         1 WUA       0.035700
     70 H15         34.0480    27.5940    32.1850 hc         1 WUA       0.036200
     71 H16         34.9580    27.9220    30.7150 hc         1 WUA       0.036200
     72 H17         22.7730    30.9960    25.9300 hc         1 WUA       0.034700
     73 H18         23.6110    32.2960    26.7480 hc         1 WUA       0.034700
     74 H19         33.4740    26.3110    29.4510 hc         1 WUA       0.050200
     75 H20         32.6260    25.9390    30.9520 hc         1 WUA       0.050200
     76 H21         33.8870    26.7520    37.3300 hc         1 WUA       0.036200
     77 H22         33.4250    27.8470    38.6220 hc         1 WUA       0.036200
     78 H23         23.0970    31.1110    28.9780 hc         1 WUA       0.039200
     79 H24         22.4130    29.7830    28.0500 hc         1 WUA       0.039200
     80 H25         24.1450    33.8370    33.2540 hc         1 WUA       0.036700
     81 H26         22.7740    32.7690    32.9790 hc         1 WUA       0.036700
     82 H27         33.6500    25.6220    39.5540 hc         1 WUA       0.034700
     83 H28         31.9840    26.1390    39.6610 hc         1 WUA       0.034700
     84 H29         30.9800    27.5990    37.8310 hc         1 WUA       0.038200
     85 H30         31.6060    26.7490    36.4170 hc         1 WUA       0.038200
     86 H31         31.3320    24.6820    37.7710 hc         1 WUA       0.037200
     87 H32         32.0940    23.7770    39.0610 hc         1 WUA       0.037200
     88 H33         33.0210    28.7780    35.8720 hc         1 WUA       0.036200
     89 H34         32.3130    29.6160    37.2540 hc         1 WUA       0.036200
     90 H35         32.8710    22.9070    36.9500 hc         1 WUA       0.042700
     91 H36         33.3170    24.4980    36.3530 hc         1 WUA       0.042700
     92 H37         30.8470    28.6600    34.7380 hc         1 WUA       0.039200
     93 H38         30.0050    29.2400    36.1680 hc         1 WUA       0.039200
     94 H39         34.7740    25.1510    31.9640 hc         1 WUA       0.061200
     95 H40         35.5870    25.4400    30.4020 hc         1 WUA       0.061200
     96 H41         24.6370    29.4120    26.9520 hc         1 WUA       0.034200
     97 H42         25.3040    30.7950    27.8220 hc         1 WUA       0.034200
     98 H43         34.9870    21.1250    29.3880 hx         1 WUA       0.113200
     99 H44         33.4340    20.4760    28.8660 hx         1 WUA       0.113200
    100 H45         33.6920    23.7290    33.0700 h1         1 WUA       0.062700
    101 H46         27.1290    30.5390    33.3270 hc         1 WUA       0.037200
    102 H47         26.4770    29.8910    31.8240 hc         1 WUA       0.037200
    103 H48         35.2250    24.6460    37.8360 hc         1 WUA       0.037200
    104 H49         34.6670    23.3080    38.8330 hc         1 WUA       0.037200
    105 H50         31.0280    31.4680    35.9680 hc         1 WUA       0.035700
    106 H51         30.1760    31.0240    34.4970 hc         1 WUA       0.035700
    107 H52         35.3440    21.2060    32.5980 h1         1 WUA       0.045700
    108 H53         35.2370    21.6700    37.1930 hc         1 WUA       0.043700
    109 H54         36.6110    22.7480    37.3390 hc         1 WUA       0.043700
    110 H55         34.5710    17.8850    27.5200 hx         1 WUA       0.092700
    111 H56         33.3000    18.9630    26.8810 hx         1 WUA       0.092700
    112 H57         34.7690    18.6460    25.9190 hx         1 WUA       0.092700
    113 H58         36.7720    18.8390    28.2440 hx         1 WUA       0.092700
    114 H59         36.9710    19.6060    26.6460 hx         1 WUA       0.092700
    115 H60         37.0620    20.5970    28.1280 hx         1 WUA       0.092700
    116 H61         35.2980    22.0930    27.1870 hx         1 WUA       0.092700
    117 H62         35.2160    21.0720    25.7240 hx         1 WUA       0.092700
    118 H63         33.7350    21.4130    26.6630 hx         1 WUA       0.092700
    119 H64         32.4290    30.3470    33.4790 hc         1 WUA       0.038700
    120 H65         33.2160    30.9880    34.9160 hc         1 WUA       0.038700
    121 H66         24.8370    29.6270    30.0100 hc         1 WUA       0.037700
    122 H67         24.2380    28.2270    29.1220 hc         1 WUA       0.037700
    123 H68         23.5130    32.7870    30.4640 hc         1 WUA       0.039700
    124 H69         24.5110    34.1730    30.8920 hc         1 WUA       0.039700
    125 H70         34.0540    18.2330    29.7210 h1         1 WUA       0.038700
    126 H71         35.6700    18.8260    30.1480 h1         1 WUA       0.038700
    127 H72         31.6590    22.3330    32.8790 h1         1 WUA       0.047700
    128 H73         32.6010    22.1140    34.3450 h1         1 WUA       0.047700
    129 H74         35.1420    20.9590    34.8710 ha         1 WUA       0.201000
    130 H75         35.6960    23.9850    35.1910 ha         1 WUA       0.167000
    131 H76         32.2660    33.2520    34.4600 hc         1 WUA       0.034700
    132 H77         31.4330    32.6310    33.0360 hc         1 WUA       0.034700
    133 H78         26.5960    27.8740    29.8490 hc         1 WUA       0.032367
    134 H79         26.5090    27.9160    28.0740 hc         1 WUA       0.032367
    135 H80         27.1090    29.3300    28.9720 hc         1 WUA       0.032367
    136 H81         33.5320    33.8080    32.3900 hc         1 WUA       0.031700
    137 H82         34.4880    32.7020    33.4010 hc         1 WUA       0.031700
    138 H83         33.6400    32.0870    31.9630 hc         1 WUA       0.031700
    139 H84         28.2360    31.1440    30.5270 hc         1 WUA       0.036200
    140 H85         28.9010    31.7570    32.0420 hc         1 WUA       0.036200
    141 H86         22.4000    35.3200    31.7780 hc         1 WUA       0.035200
    142 H87         21.4600    33.9680    31.1700 hc         1 WUA       0.035200
    143 H88         29.3760    29.4040    32.7800 hc         1 WUA       0.039200
    144 H89         28.7220    28.7910    31.2640 hc         1 WUA       0.039200
    145 H90         23.0740    36.0100    29.5600 hc         1 WUA       0.035700
    146 H91         21.3320    35.8030    29.5690 hc         1 WUA       0.035700
    147 H92         30.5020    29.9530    29.9770 hc         1 WUA       0.035200
    148 H93         31.1200    30.6920    31.4510 hc         1 WUA       0.035200
    149 H94         33.1480    22.1110    30.6880 hn         1 WUA       0.363500
    150 H95         37.0220    22.8190    33.2030 ho         1 WUA       0.434000
    151 C38         34.1990    23.7950    30.3300 c          1 WUA       0.619100
@<TRIPOS>BOND
     1     1    24 1   
     2     1    31 1   
     3     1    32 1   
     4     1    33 1   
     5     2     4 1   
     6     2    15 1   
     7     2    56 1   
     8     2    57 1   
     9     3    37 1   
    10     3    55 1   
    11     4    26 1   
    12     4    58 1   
    13     4    59 1   
    14     5     7 1   
    15     5    47 1   
    16     5    60 1   
    17     5    61 1   
    18     6     8 1   
    19     6    48 1   
    20     6    62 1   
    21     6    63 1   
    22     7     9 1   
    23     7    64 1   
    24     7    65 1   
    25     8    10 1   
    26     8    66 1   
    27     8    67 1   
    28     9    11 1   
    29     9    68 1   
    30     9    69 1   
    31    10    12 1   
    32    10    70 1   
    33    10    71 1   
    34    11    14 1   
    35    11    72 1   
    36    11    73 1   
    37    12    22 1   
    38    12    74 1   
    39    12    75 1   
    40    13    16 1   
    41    13    17 1   
    42    13    76 1   
    43    13    77 1   
    44    14    23 1   
    45    14    78 1   
    46    14    79 1   
    47    15    36 1   
    48    15    80 1   
    49    15    81 1   
    50    16    18 1   
    51    16    82 1   
    52    16    83 1   
    53    17    19 1   
    54    17    84 1   
    55    17    85 1   
    56    18    20 1   
    57    18    86 1   
    58    18    87 1   
    59    19    21 1   
    60    19    88 1   
    61    19    89 1   
    62    20    27 1   
    63    20    90 1   
    64    20    91 1   
    65    21    28 1   
    66    21    92 1   
    67    21    93 1   
    68    22    94 1   
    69    22    95 1   
    70    22   151 1   
    71    23    35 1   
    72    23    96 1   
    73    23    97 1   
    74    24    37 1   
    75    24    98 1   
    76    24    99 1   
    77    25    29 1   
    78    25    38 1   
    79    25    49 1   
    80    25   100 1   
    81    26    44 1   
    82    26   101 1   
    83    26   102 1   
    84    27    30 1   
    85    27   103 1   
    86    27   104 1   
    87    28    34 1   
    88    28   105 1   
    89    28   106 1   
    90    29    39 1   
    91    29    51 1   
    92    29   107 1   
    93    30    40 1   
    94    30   108 1   
    95    30   109 1   
    96    31   110 1   
    97    31   111 1   
    98    31   112 1   
    99    32   113 1   
   100    32   114 1   
   101    32   115 1   
   102    33   116 1   
   103    33   117 1   
   104    33   118 1   
   105    34    41 1   
   106    34   119 1   
   107    34   120 1   
   108    35    42 1   
   109    35   121 1   
   110    35   122 1   
   111    36    45 1   
   112    36   123 1   
   113    36   124 1   
   114    37   125 1   
   115    37   126 1   
   116    38    50 1   
   117    38   127 1   
   118    38   128 1   
   119    39    40 2   
   120    39   129 1   
   121    40   130 1   
   122    41    43 1   
   123    41   131 1   
   124    41   132 1   
   125    42   133 1   
   126    42   134 1   
   127    42   135 1   
   128    43   136 1   
   129    43   137 1   
   130    43   138 1   
   131    44    46 1   
   132    44   139 1   
   133    44   140 1   
   134    45    47 1   
   135    45   141 1   
   136    45   142 1   
   137    46    48 1   
   138    46   143 1   
   139    46   144 1   
   140    47   145 1   
   141    47   146 1   
   142    48   147 1   
   143    48   148 1   
   144    49   149 1   
   145    49   151 1   
   146    50    55 1   
   147    51   150 1   
   148    52   151 2   
   149    53    55 1   
   150    54    55 1   
@<TRIPOS>SUBSTRUCTURE
     1 WUA         1 TEMP              0 ****  ****    0 ROOT
