@<TRIPOS>MOLECULE
WUA
  151   150     1     0     0
SMALL
abcg2


@<TRIPOS>ATOM
      1 N           33.0990    21.0500    27.7110 n4         1 WUA      -0.490000
      2 C           23.5580    32.7400    31.1340 c3         1 WUA      -0.073400
      3 O           33.3280    19.7260    31.2060 os         1 WUA      -0.570400
      4 C1          25.0640    32.9680    31.1650 c3         1 WUA      -0.076400
      5 C10         23.4740    33.6530    25.8340 c3         1 WUA      -0.074400
      6 C11         30.2270    29.5500    32.6920 c3         1 WUA      -0.080400
      7 C12         22.6460    32.3840    25.6660 c3         1 WUA      -0.073400
      8 C13         31.7420    29.5710    32.5230 c3         1 WUA      -0.070400
      9 C14         23.3440    31.3010    24.8410 c3         1 WUA      -0.071400
     10 C15         32.4270    28.2640    32.9130 c3         1 WUA      -0.076400
     11 C16         24.7270    30.8870    25.3420 c3         1 WUA      -0.072400
     12 C17         32.0180    27.0880    32.0350 c3         1 WUA      -0.066400
     13 C18         35.8570    26.1720    37.6020 c3         1 WUA      -0.072400
     14 C19         24.7520    30.3570    26.7710 c3         1 WUA      -0.077400
     15 C2          22.7750    33.7620    30.3130 c3         1 WUA      -0.072400
     16 C20         36.7720    25.2790    38.4370 c3         1 WUA      -0.071400
     17 C21         34.3830    26.0550    37.9800 c3         1 WUA      -0.077400
     18 C22         36.4300    23.7910    38.4120 c3         1 WUA      -0.072400
     19 C23         33.5410    27.2480    37.5400 c3         1 WUA      -0.076400
     20 C24         36.4300    23.1510    37.0260 c3         1 WUA      -0.075400
     21 C25         32.0630    27.0930    37.9040 c3         1 WUA      -0.072400
     22 C26         32.7010    25.7920    32.4410 c3         1 WUA      -0.159400
     23 C27         26.1490    29.9520    27.2250 c3         1 WUA      -0.076400
     24 C28         33.1790    20.9940    29.2100 c3         1 WUA       0.044600
     25 C29         33.4530    22.9900    33.1370 c3         1 WUA       0.088700
     26 C3          25.8030    31.8880    31.9450 c3         1 WUA      -0.076400
     27 C30         37.7690    23.2460    36.3060 c3         1 WUA      -0.068400
     28 C31         31.3260    28.4150    38.0890 c3         1 WUA      -0.073400
     29 C32         34.8220    22.6580    32.5130 c3         1 WUA       0.187500
     30 C33         37.8170    22.4210    35.0180 c3         1 WUA      -0.043200
     31 C34         31.8210    20.4630    27.2210 c3         1 WUA       0.076900
     32 C35         34.2500    20.3430    27.0810 c3         1 WUA       0.076900
     33 C36         33.1500    22.4880    27.3160 c3         1 WUA       0.076900
     34 C37         31.2190    29.2840    36.8410 c3         1 WUA      -0.076400
     35 C39         26.1900    29.4160    28.6510 c3         1 WUA      -0.077400
     36 C4          23.2620    33.8850    28.8710 c3         1 WUA      -0.078400
     37 C40         33.0260    19.6100    29.8340 c3         1 WUA       0.229600
     38 C41         32.9030    21.8620    34.0140 c3         1 WUA       0.228600
     39 C42         35.8120    22.1900    33.5400 c2         1 WUA      -0.256200
     40 C43         36.8390    22.9010    33.9950 c2         1 WUA      -0.215200
     41 C44         30.5980    30.6430    37.1410 c3         1 WUA      -0.075400
     42 C45         27.5920    29.0260    29.0940 c3         1 WUA      -0.089100
     43 C46         30.4030    31.5100    35.9050 c3         1 WUA      -0.091100
     44 C5          27.3180    31.9950    31.8430 c3         1 WUA      -0.074400
     45 C6          22.2190    34.4780    27.9320 c3         1 WUA      -0.073400
     46 C7          28.0440    30.8200    32.4840 c3         1 WUA      -0.076400
     47 C8          22.7440    34.7970    26.5320 c3         1 WUA      -0.070400
     48 C9          29.5510    30.8450    32.2650 c3         1 WUA      -0.075400
     49 N1          32.5000    23.3650    32.1190 ns         1 WUA      -0.526900
     50 O1          33.0180    20.5500    33.4890 os         1 WUA      -0.598400
     51 O2          35.2400    23.8150    31.8290 oh         1 WUA      -0.669000
     52 O3          31.4650    24.7280    30.6860 o          1 WUA      -0.654100
     53 O4          31.6220    18.5750    32.7390 o          1 WUA      -0.795000
     54 O5          31.1270    20.9360    31.7580 o          1 WUA      -0.795000
     55 P           32.0950    19.9180    32.2980 p5         1 WUA       1.385800
     56 H1          23.1730    32.7210    32.1580 hc         1 WUA       0.037200
     57 H2          23.3660    31.7430    30.7210 hc         1 WUA       0.037200
     58 H3          25.4510    32.9830    30.1400 hc         1 WUA       0.038200
     59 H4          25.2860    33.9540    31.5880 hc         1 WUA       0.038200
     60 H5          23.8030    33.9970    24.8480 hc         1 WUA       0.037200
     61 H6          24.3910    33.4210    26.3850 hc         1 WUA       0.037200
     62 H7          29.9870    29.3340    33.7390 hc         1 WUA       0.041700
     63 H8          29.7920    28.7320    32.1100 hc         1 WUA       0.041700
     64 H9          22.3790    31.9810    26.6480 hc         1 WUA       0.038200
     65 H10         21.6970    32.6360    25.1810 hc         1 WUA       0.038200
     66 H11         31.9870    29.8110    31.4820 hc         1 WUA       0.034700
     67 H12         32.1540    30.3870    33.1260 hc         1 WUA       0.034700
     68 H13         22.7000    30.4170    24.8030 hc         1 WUA       0.035700
     69 H14         23.4390    31.6500    23.8080 hc         1 WUA       0.035700
     70 H15         32.2010    28.0350    33.9610 hc         1 WUA       0.036200
     71 H16         33.5130    28.3960    32.8610 hc         1 WUA       0.036200
     72 H17         25.1220    30.1160    24.6720 hc         1 WUA       0.034700
     73 H18         25.4200    31.7290    25.2610 hc         1 WUA       0.034700
     74 H19         32.2460    27.3220    30.9910 hc         1 WUA       0.050200
     75 H20         30.9370    26.9510    32.0870 hc         1 WUA       0.050200
     76 H21         35.9830    25.9590    36.5350 hc         1 WUA       0.036200
     77 H22         36.1810    27.2090    37.7360 hc         1 WUA       0.036200
     78 H23         24.3660    31.1170    27.4590 hc         1 WUA       0.039200
     79 H24         24.0750    29.5000    26.8570 hc         1 WUA       0.039200
     80 H25         22.8120    34.7430    30.7980 hc         1 WUA       0.036700
     81 H26         21.7200    33.4670    30.3130 hc         1 WUA       0.036700
     82 H27         37.8070    25.4260    38.1150 hc         1 WUA       0.034700
     83 H28         36.7340    25.6220    39.4760 hc         1 WUA       0.034700
     84 H29         34.2980    25.9620    39.0690 hc         1 WUA       0.038200
     85 H30         33.9630    25.1320    37.5680 hc         1 WUA       0.038200
     86 H31         35.4490    23.6340    38.8710 hc         1 WUA       0.037200
     87 H32         37.1450    23.2590    39.0480 hc         1 WUA       0.037200
     88 H33         33.6540    27.4110    36.4640 hc         1 WUA       0.036200
     89 H34         33.9410    28.1470    38.0230 hc         1 WUA       0.036200
     90 H35         36.1600    22.0950    37.1300 hc         1 WUA       0.042700
     91 H36         35.6440    23.5970    36.4090 hc         1 WUA       0.042700
     92 H37         31.5580    26.4830    37.1490 hc         1 WUA       0.039200
     93 H38         31.9900    26.5310    38.8400 hc         1 WUA       0.039200
     94 H39         32.5450    25.6230    33.5120 hc         1 WUA       0.061200
     95 H40         33.7830    25.8700    32.3140 hc         1 WUA       0.061200
     96 H41         26.5500    29.1940    26.5430 hc         1 WUA       0.034200
     97 H42         26.8180    30.8160    27.1450 hc         1 WUA       0.034200
     98 H43         34.1460    21.4180    29.4820 hx         1 WUA       0.113200
     99 H44         32.3950    21.6500    29.5850 hx         1 WUA       0.113200
    100 H45         33.6050    23.8310    33.8210 h1         1 WUA       0.062700
    101 H46         25.4950    31.9110    32.9960 hc         1 WUA       0.037200
    102 H47         25.4950    30.9080    31.5630 hc         1 WUA       0.037200
    103 H48         37.9980    24.2900    36.0720 hc         1 WUA       0.037200
    104 H49         38.5660    22.9020    36.9730 hc         1 WUA       0.037200
    105 H50         31.8300    28.9860    38.8770 hc         1 WUA       0.035700
    106 H51         30.3170    28.2150    38.4640 hc         1 WUA       0.035700
    107 H52         34.6660    21.8360    31.8020 h1         1 WUA       0.045700
    108 H53         37.6290    21.3680    35.2510 hc         1 WUA       0.043700
    109 H54         38.8290    22.4760    34.6050 hc         1 WUA       0.043700
    110 H55         31.8090    19.3920    27.4060 hx         1 WUA       0.092700
    111 H56         30.9910    20.9410    27.7350 hx         1 WUA       0.092700
    112 H57         31.7440    20.6400    26.1510 hx         1 WUA       0.092700
    113 H58         34.2070    19.2840    27.3140 hx         1 WUA       0.092700
    114 H59         34.1930    20.4760    26.0040 hx         1 WUA       0.092700
    115 H60         35.1770    20.7700    27.4570 hx         1 WUA       0.092700
    116 H61         34.0800    22.9230    27.6750 hx         1 WUA       0.092700
    117 H62         33.1050    22.5590    26.2320 hx         1 WUA       0.092700
    118 H63         32.3040    23.0100    27.7570 hx         1 WUA       0.092700
    119 H64         30.6240    28.7610    36.0830 hc         1 WUA       0.038700
    120 H65         32.2090    29.4330    36.3970 hc         1 WUA       0.038700
    121 H66         25.7880    30.1730    29.3330 hc         1 WUA       0.037700
    122 H67         25.5240    28.5520    28.7320 hc         1 WUA       0.037700
    123 H68         23.5500    32.8910    28.5100 hc         1 WUA       0.039700
    124 H69         24.1750    34.4890    28.8370 hc         1 WUA       0.039700
    125 H70         32.0210    19.2130    29.6640 h1         1 WUA       0.038700
    126 H71         33.7310    18.8970    29.4030 h1         1 WUA       0.038700
    127 H72         31.8650    22.0990    34.2670 h1         1 WUA       0.047700
    128 H73         33.4670    21.8510    34.9470 h1         1 WUA       0.047700
    129 H74         35.6620    21.1800    33.9120 ha         1 WUA       0.201000
    130 H75         36.9970    23.9120    33.6270 ha         1 WUA       0.167000
    131 H76         31.2340    31.1690    37.8600 hc         1 WUA       0.034700
    132 H77         29.6340    30.5010    37.6390 hc         1 WUA       0.034700
    133 H78         27.6000    28.6330    30.1110 hc         1 WUA       0.032367
    134 H79         28.0140    28.2600    28.4410 hc         1 WUA       0.032367
    135 H80         28.2650    29.8860    29.0690 hc         1 WUA       0.032367
    136 H81         30.0430    32.5050    36.1670 hc         1 WUA       0.031700
    137 H82         31.3380    31.6300    35.3530 hc         1 WUA       0.031700
    138 H83         29.6760    31.0660    35.2240 hc         1 WUA       0.031700
    139 H84         27.5990    32.0450    30.7840 hc         1 WUA       0.036200
    140 H85         27.6570    32.9350    32.2910 hc         1 WUA       0.036200
    141 H86         21.8170    35.3980    28.3700 hc         1 WUA       0.035200
    142 H87         21.3710    33.7880    27.8700 hc         1 WUA       0.035200
    143 H88         27.8270    30.7890    33.5580 hc         1 WUA       0.039200
    144 H89         27.6410    29.8900    32.0690 hc         1 WUA       0.039200
    145 H90         23.4240    35.6520    26.5980 hc         1 WUA       0.035700
    146 H91         21.9070    35.1260    25.9080 hc         1 WUA       0.035700
    147 H92         29.7570    31.0180    31.2030 hc         1 WUA       0.035200
    148 H93         29.9920    31.6920    32.8020 hc         1 WUA       0.035200
    149 H94         31.9850    22.5890    31.7000 hn         1 WUA       0.363500
    150 H95         36.0450    23.6020    31.3450 ho         1 WUA       0.434000
    151 C38         32.1880    24.5930    31.6690 c          1 WUA       0.619100
@<TRIPOS>BOND
     1     1    24 1   
     2     1    31 1   
     3     1    32 1   
     4     1    33 1   
     5     2     4 1   
     6     2    15 1   
     7     2    56 1   
     8     2    57 1   
     9     3    37 1   
    10     3    55 1   
    11     4    26 1   
    12     4    58 1   
    13     4    59 1   
    14     5     7 1   
    15     5    47 1   
    16     5    60 1   
    17     5    61 1   
    18     6     8 1   
    19     6    48 1   
    20     6    62 1   
    21     6    63 1   
    22     7     9 1   
    23     7    64 1   
    24     7    65 1   
    25     8    10 1   
    26     8    66 1   
    27     8    67 1   
    28     9    11 1   
    29     9    68 1   
    30     9    69 1   
    31    10    12 1   
    32    10    70 1   
    33    10    71 1   
    34    11    14 1   
    35    11    72 1   
    36    11    73 1   
    37    12    22 1   
    38    12    74 1   
    39    12    75 1   
    40    13    16 1   
    41    13    17 1   
    42    13    76 1   
    43    13    77 1   
    44    14    23 1   
    45    14    78 1   
    46    14    79 1   
    47    15    36 1   
    48    15    80 1   
    49    15    81 1   
    50    16    18 1   
    51    16    82 1   
    52    16    83 1   
    53    17    19 1   
    54    17    84 1   
    55    17    85 1   
    56    18    20 1   
    57    18    86 1   
    58    18    87 1   
    59    19    21 1   
    60    19    88 1   
    61    19    89 1   
    62    20    27 1   
    63    20    90 1   
    64    20    91 1   
    65    21    28 1   
    66    21    92 1   
    67    21    93 1   
    68    22    94 1   
    69    22    95 1   
    70    22   151 1   
    71    23    35 1   
    72    23    96 1   
    73    23    97 1   
    74    24    37 1   
    75    24    98 1   
    76    24    99 1   
    77    25    29 1   
    78    25    38 1   
    79    25    49 1   
    80    25   100 1   
    81    26    44 1   
    82    26   101 1   
    83    26   102 1   
    84    27    30 1   
    85    27   103 1   
    86    27   104 1   
    87    28    34 1   
    88    28   105 1   
    89    28   106 1   
    90    29    39 1   
    91    29    51 1   
    92    29   107 1   
    93    30    40 1   
    94    30   108 1   
    95    30   109 1   
    96    31   110 1   
    97    31   111 1   
    98    31   112 1   
    99    32   113 1   
   100    32   114 1   
   101    32   115 1   
   102    33   116 1   
   103    33   117 1   
   104    33   118 1   
   105    34    41 1   
   106    34   119 1   
   107    34   120 1   
   108    35    42 1   
   109    35   121 1   
   110    35   122 1   
   111    36    45 1   
   112    36   123 1   
   113    36   124 1   
   114    37   125 1   
   115    37   126 1   
   116    38    50 1   
   117    38   127 1   
   118    38   128 1   
   119    39    40 2   
   120    39   129 1   
   121    40   130 1   
   122    41    43 1   
   123    41   131 1   
   124    41   132 1   
   125    42   133 1   
   126    42   134 1   
   127    42   135 1   
   128    43   136 1   
   129    43   137 1   
   130    43   138 1   
   131    44    46 1   
   132    44   139 1   
   133    44   140 1   
   134    45    47 1   
   135    45   141 1   
   136    45   142 1   
   137    46    48 1   
   138    46   143 1   
   139    46   144 1   
   140    47   145 1   
   141    47   146 1   
   142    48   147 1   
   143    48   148 1   
   144    49   149 1   
   145    49   151 1   
   146    50    55 1   
   147    51   150 1   
   148    52   151 2   
   149    53    55 1   
   150    54    55 1   
@<TRIPOS>SUBSTRUCTURE
     1 WUA         1 TEMP              0 ****  ****    0 ROOT
