@<TRIPOS>MOLECULE
WUB
   28    30     1     0     0
SMALL
bcc


@<TRIPOS>ATOM
      1 O01         -1.8780    -2.4070    -0.5800 o          1 WUB      -0.834300
      2 C02         -2.6700    -1.5480    -0.1310 c          1 WUB       0.935600
      3 O03         -3.8900    -1.7020     0.0450 o          1 WUB      -0.834300
      4 C04         -2.0940    -0.1670     0.2670 c6         1 WUB      -0.196700
      5 C05         -3.0370     0.9590    -0.1520 c6         1 WUB      -0.034200
      6 C06         -2.4610     2.3110     0.1020 c2         1 WUB      -0.130200
      7 C07         -1.1520     2.5310     0.2610 ce         1 WUB      -0.245600
      8 C08         -0.1780     1.4660     0.1230 ce         1 WUB       0.461600
      9 N09          1.0680     1.7440     0.2480 nf         1 WUB      -0.584100
     10 C10          1.9970     0.7210     0.0940 ca         1 WUB       0.046400
     11 C11          3.3490     1.0290    -0.0180 ca         1 WUB      -0.068000
     12 C12          4.3030     0.0250    -0.1100 ca         1 WUB      -0.207000
     13 C13          3.8960    -1.3040    -0.0650 ca         1 WUB      -0.096000
     14 C14          2.5530    -1.6320     0.0510 ca         1 WUB      -0.206000
     15 C15          1.5880    -0.6270     0.1230 ca         1 WUB       0.164600
     16 N16          0.2510    -0.8790     0.2770 nu         1 WUB      -0.718600
     17 C17         -0.6820     0.0900    -0.2610 c6         1 WUB       0.151200
     18 H041        -2.0310    -0.1490     1.3650 hc         1 WUB       0.051700
     19 H052        -3.2870     0.8780    -1.2170 hc         1 WUB       0.060200
     20 H051        -3.9860     0.8590     0.3760 hc         1 WUB       0.060200
     21 H061        -3.1490     3.1470     0.1540 ha         1 WUB       0.104000
     22 H071        -0.7690     3.5250     0.4610 ha         1 WUB       0.124000
     23 H111         3.6400     2.0730    -0.0310 ha         1 WUB       0.126000
     24 H121         5.3510     0.2750    -0.2050 ha         1 WUB       0.114000
     25 H131         4.6310    -2.0970    -0.1270 ha         1 WUB       0.110000
     26 H141         2.2470    -2.6710     0.0860 ha         1 WUB       0.133000
     27 H161        -0.0650    -1.8220     0.0840 hn         1 WUB       0.467800
     28 H171        -0.7140     0.0540    -1.3660 h1         1 WUB       0.045700
@<TRIPOS>BOND
     1     1     2 1   
     2     2     3 1   
     3     2     4 1   
     4     4     5 1   
     5     4    17 1   
     6     4    18 1   
     7     5     6 1   
     8     5    19 1   
     9     5    20 1   
    10     6     7 2   
    11     6    21 1   
    12     7     8 1   
    13     7    22 1   
    14     8     9 2   
    15     8    17 1   
    16     9    10 1   
    17    10    11 ar  
    18    10    15 ar  
    19    11    12 ar  
    20    11    23 1   
    21    12    13 ar  
    22    12    24 1   
    23    13    14 ar  
    24    13    25 1   
    25    14    15 ar  
    26    14    26 1   
    27    15    16 1   
    28    16    17 1   
    29    16    27 1   
    30    17    28 1   
@<TRIPOS>SUBSTRUCTURE
     1 WUB         1 TEMP              0 ****  ****    0 ROOT
