@<TRIPOS>MOLECULE
WUB
   28    30     1     0     0
SMALL
No Charge or Current Charge


@<TRIPOS>ATOM
      1 O01         -2.9180    -1.7980    -1.2670 o          1 WUB      -0.729000
      2 C02         -2.6780    -1.5380    -0.0960 c          1 WUB       0.725000
      3 O03         -2.8790    -2.3190     0.8220 o          1 WUB      -0.729000
      4 C04         -2.1050    -0.1490     0.2460 c6         1 WUB      -0.196700
      5 C05         -3.1130     0.9770    -0.1220 c6         1 WUB      -0.034200
      6 C06         -2.5320     2.3640     0.0990 c2         1 WUB      -0.180200
      7 C07         -1.2020     2.6010     0.0870 ce         1 WUB      -0.295600
      8 C08         -0.1860     1.5590    -0.1170 ce         1 WUB       0.461600
      9 N09          1.1050     1.7970    -0.0090 nf         1 WUB      -0.584100
     10 C10          2.0550     0.7290     0.0400 ca         1 WUB       0.046400
     11 C11          3.4310     1.0190     0.0920 ca         1 WUB      -0.050000
     12 C12          4.3710    -0.0260     0.1450 ca         1 WUB      -0.189000
     13 C13          3.9440    -1.3650     0.1470 ca         1 WUB      -0.078000
     14 C14          2.5720    -1.6660     0.0960 ca         1 WUB      -0.188000
     15 C15          1.6260    -0.6290     0.0430 ca         1 WUB       0.303000
     16 N16          0.2580    -0.9260    -0.0140 nu         1 WUB      -0.912200
     17 C17         -0.7290     0.1140    -0.4280 c6         1 WUB       0.151200
     18 H041        -1.9570    -0.1160     1.3340 hc         1 WUB       0.051700
     19 H052        -3.4130     0.8860    -1.1750 hc         1 WUB       0.060200
     20 H051        -4.0320     0.8610     0.4700 hc         1 WUB       0.060200
     21 H061        -3.2470     3.1730     0.2650 ha         1 WUB       0.154000
     22 H071        -0.8190     3.6070     0.2540 ha         1 WUB       0.174000
     23 H111         3.7680     2.0520     0.0910 ha         1 WUB       0.108000
     24 H121         5.4330     0.2030     0.1850 ha         1 WUB       0.096000
     25 H131         4.6760    -2.1700     0.1880 ha         1 WUB       0.092000
     26 H141         2.2470    -2.7020     0.0980 ha         1 WUB       0.115000
     27 H161         0.0110    -1.9140    -0.1020 hn         1 WUB       0.523000
     28 H171        -0.8550     0.0600    -1.5200 h1         1 WUB       0.045700
@<TRIPOS>BOND
     1     1     2 1   
     2     2     3 1   
     3     2     4 1   
     4     4     5 1   
     5     4    17 1   
     6     4    18 1   
     7     5     6 1   
     8     5    19 1   
     9     5    20 1   
    10     6     7 2   
    11     6    21 1   
    12     7     8 1   
    13     7    22 1   
    14     8     9 2   
    15     8    17 1   
    16     9    10 1   
    17    10    11 ar  
    18    10    15 ar  
    19    11    12 ar  
    20    11    23 1   
    21    12    13 ar  
    22    12    24 1   
    23    13    14 ar  
    24    13    25 1   
    25    14    15 ar  
    26    14    26 1   
    27    15    16 1   
    28    16    17 1   
    29    16    27 1   
    30    17    28 1   
@<TRIPOS>SUBSTRUCTURE
     1 WUB         1 TEMP              0 ****  ****    0 ROOT
