@<TRIPOS>MOLECULE
WUC
   92    98     1     0     0
SMALL
No Charge or Current Charge


@<TRIPOS>ATOM
      1 C1          -9.1270    66.4510     7.5990 c3         1 WUC       0.146900
      2 C3          -9.0380    64.2900     8.6870 c3         1 WUC       0.157600
      3 C4          -9.9450    63.2010     9.3090 c3         1 WUC       0.160600
      4 C6         -11.5350    61.4720     8.7070 c3         1 WUC       0.134300
      5 C7         -12.1980    60.8140     7.5120 cc         1 WUC       0.255300
      6 C11        -12.4490    59.5320     5.7240 cd         1 WUC      -0.053000
      7 C12        -11.5110    59.9630     6.6190 cc         1 WUC      -0.167300
      8 C15        -10.1630    56.7010     6.7110 c3         1 WUC       0.057300
      9 C16         -8.8920    56.2660     6.0230 cc         1 WUC       0.260300
     10 C17         -8.4280    56.8340     4.8260 cc         1 WUC      -0.205000
     11 C18         -7.2510    56.2210     4.5260 cd         1 WUC      -0.145300
     12 C19         -6.2800    56.4790     3.3980 c3         1 WUC      -0.007100
     13 C21         -7.4570    55.4470     1.3720 ca         1 WUC      -0.021300
     14 C23         -8.4170    56.2180    -0.7350 ca         1 WUC       0.018000
     15 C24         -8.2830    56.9380    -1.9370 ca         1 WUC      -0.161000
     16 C27        -10.5590    56.3450    -2.5540 ca         1 WUC      -0.170000
     17 C30         -9.7530    54.8460     0.7810 ca         1 WUC       0.183100
     18 C31         -8.6650    54.7960     1.6800 ca         1 WUC      -0.206000
     19 C33        -11.2940    53.7490     2.3740 c3         1 WUC       0.161600
     20 C34        -12.7940    53.3820     2.3640 c3         1 WUC      -0.076400
     21 C35        -13.7490    54.5790     2.1170 c3         1 WUC       0.024800
     22 C36        -13.6750    55.6330     3.2030 cc         1 WUC      -0.180400
     23 C37        -12.8280    56.7940     3.1510 ca         1 WUC      -0.088800
     24 C38        -11.9750    57.2130     2.1210 ca         1 WUC      -0.055000
     25 C39        -11.2320    58.3890     2.3050 ca         1 WUC      -0.160000
     26 C40        -11.3700    59.1370     3.4900 ca         1 WUC       0.134000
     27 O2          -9.8590    65.3770     8.2110 os         1 WUC      -0.447000
     28 O5         -10.6560    62.5220     8.2550 os         1 WUC      -0.450000
     29 N8         -13.4750    60.9790     7.2200 nd         1 WUC      -0.519800
     30 N9         -13.6290    60.1950     6.0890 na         1 WUC       0.139800
     31 C10        -14.9170    60.1610     5.3780 c3         1 WUC       0.071900
     32 C13        -10.0600    59.5700     6.7580 c3         1 WUC       0.171900
     33 S14         -9.8970    58.1170     7.8990 ss         1 WUC      -0.499000
     34 C20         -6.2670    55.3730     2.3200 c3         1 WUC      -0.030100
     35 C22         -7.3420    56.1610     0.1670 ca         1 WUC      -0.158000
     36 C25         -9.3530    56.9980    -2.8390 ca         1 WUC       0.173000
     37 F26         -9.2210    57.6900    -3.9920 f          1 WUC      -0.194000
     38 C28        -10.7000    55.6240    -1.3550 ca         1 WUC      -0.036000
     39 C29         -9.6280    55.5550    -0.4350 ca         1 WUC      -0.083000
     40 O32        -10.9560    54.2280     1.0630 os         1 WUC      -0.361100
     41 Cl41       -10.5070    60.6740     3.5830 cl         1 WUC      -0.241000
     42 C42        -12.2570    58.7140     4.5170 ca         1 WUC      -0.061000
     43 C43        -12.9730    57.5030     4.3120 ca         1 WUC      -0.047200
     44 N44        -13.8440    56.8160     5.1650 na         1 WUC      -0.071700
     45 C45        -13.8840    57.0020     6.6330 c3         1 WUC       0.052900
     46 C46        -14.3330    55.6860     4.4460 cd         1 WUC      -0.050300
     47 C47        -15.3490    54.6820     4.9520 c          1 WUC       0.717200
     48 O48        -15.6350    53.7030     4.2780 o          1 WUC      -0.699500
     49 O49        -15.8890    54.8840     6.0320 o          1 WUC      -0.699500
     50 N50         -7.0700    55.2930     5.5630 na         1 WUC       0.109800
     51 C51         -5.9410    54.3630     5.7320 c3         1 WUC       0.077900
     52 N52         -8.1010    55.3220     6.4920 nd         1 WUC      -0.517800
     53 H1          -9.8150    67.2380     7.2620 h1         1 WUC       0.025700
     54 H2          -8.4200    66.8970     8.3110 h1         1 WUC       0.025700
     55 H3          -8.5640    66.0930     6.7270 h1         1 WUC       0.025700
     56 H4          -8.4480    63.8540     7.8710 h1         1 WUC       0.028700
     57 H5          -8.3410    64.6510     9.4560 h1         1 WUC       0.028700
     58 H6         -10.6410    63.6640    10.0210 h1         1 WUC       0.029200
     59 H7          -9.3160    62.4900     9.8610 h1         1 WUC       0.029200
     60 H8         -12.3090    61.8790     9.3720 h1         1 WUC       0.037700
     61 H9         -10.9760    60.7130     9.2700 h1         1 WUC       0.037700
     62 H10        -10.9030    56.9780     5.9550 h1         1 WUC       0.096200
     63 H11        -10.5650    55.8460     7.2680 h1         1 WUC       0.096200
     64 H12         -8.9180    57.6260     4.2700 ha         1 WUC       0.161000
     65 H13         -5.2680    56.5780     3.8080 hc         1 WUC       0.055700
     66 H14         -6.5020    57.4420     2.9200 hc         1 WUC       0.055700
     67 H15         -7.3530    57.4500    -2.1720 ha         1 WUC       0.125000
     68 H16        -11.3840    56.3970    -3.2590 ha         1 WUC       0.129000
     69 H17         -8.7410    54.2510     2.6160 ha         1 WUC       0.129000
     70 H18        -10.6980    52.8620     2.6260 h1         1 WUC       0.042700
     71 H19        -11.1090    54.5190     3.1350 h1         1 WUC       0.042700
     72 H20        -12.9670    52.6200     1.5950 hc         1 WUC       0.062700
     73 H21        -13.0460    52.9190     3.3240 hc         1 WUC       0.062700
     74 H22        -13.5140    55.0260     1.1440 hc         1 WUC       0.045200
     75 H23        -14.7730    54.2100     2.0030 hc         1 WUC       0.045200
     76 H24        -11.8920    56.6560     1.1940 ha         1 WUC       0.121000
     77 H25        -10.5710    58.7380     1.5170 ha         1 WUC       0.119000
     78 H26        -15.6430    59.5830     5.9610 h1         1 WUC       0.060367
     79 H27        -15.2900    61.1840     5.2470 h1         1 WUC       0.060367
     80 H28        -14.7920    59.6980     4.3920 h1         1 WUC       0.060367
     81 H29         -9.6310    59.3110     5.7840 h1         1 WUC       0.076200
     82 H30         -9.4810    60.4110     7.1610 h1         1 WUC       0.076200
     83 H31         -6.2210    54.3890     2.7990 hc         1 WUC       0.043700
     84 H32         -5.3380    55.4650     1.7450 hc         1 WUC       0.043700
     85 H33         -6.4100    56.6690    -0.0710 ha         1 WUC       0.108000
     86 H34        -11.6430    55.1230    -1.1490 ha         1 WUC       0.139000
     87 H35        -13.9720    56.0290     7.1300 h1         1 WUC       0.061367
     88 H36        -12.9620    57.4630     6.9980 h1         1 WUC       0.061367
     89 H37        -14.7440    57.6240     6.9080 h1         1 WUC       0.061367
     90 H39         -5.8980    54.0110     6.7700 h1         1 WUC       0.049367
     91 H40         -6.0740    53.5030     5.0650 h1         1 WUC       0.049367
     92 H41         -5.0010    54.8720     5.4880 h1         1 WUC       0.049367
@<TRIPOS>BOND
     1     1    27 1   
     2     1    53 1   
     3     1    54 1   
     4     1    55 1   
     5     2     3 1   
     6     2    27 1   
     7     2    56 1   
     8     2    57 1   
     9     3    28 1   
    10     3    58 1   
    11     3    59 1   
    12     4     5 1   
    13     4    28 1   
    14     4    60 1   
    15     4    61 1   
    16     5     7 1   
    17     5    29 2   
    18     6     7 2   
    19     6    30 1   
    20     6    42 1   
    21     7    32 1   
    22     8     9 1   
    23     8    33 1   
    24     8    62 1   
    25     8    63 1   
    26     9    10 1   
    27     9    52 2   
    28    10    11 2   
    29    10    64 1   
    30    11    12 1   
    31    11    50 1   
    32    12    34 1   
    33    12    65 1   
    34    12    66 1   
    35    13    18 ar  
    36    13    34 1   
    37    13    35 ar  
    38    14    15 ar  
    39    14    35 ar  
    40    14    39 ar  
    41    15    36 ar  
    42    15    67 1   
    43    16    36 ar  
    44    16    38 ar  
    45    16    68 1   
    46    17    18 ar  
    47    17    39 ar  
    48    17    40 1   
    49    18    69 1   
    50    19    20 1   
    51    19    40 1   
    52    19    70 1   
    53    19    71 1   
    54    20    21 1   
    55    20    72 1   
    56    20    73 1   
    57    21    22 1   
    58    21    74 1   
    59    21    75 1   
    60    22    23 1   
    61    22    46 2   
    62    23    24 ar  
    63    23    43 ar  
    64    24    25 ar  
    65    24    76 1   
    66    25    26 ar  
    67    25    77 1   
    68    26    41 1   
    69    26    42 ar  
    70    29    30 1   
    71    30    31 1   
    72    31    78 1   
    73    31    79 1   
    74    31    80 1   
    75    32    33 1   
    76    32    81 1   
    77    32    82 1   
    78    34    83 1   
    79    34    84 1   
    80    35    85 1   
    81    36    37 1   
    82    38    39 ar  
    83    38    86 1   
    84    42    43 ar  
    85    43    44 1   
    86    44    45 1   
    87    44    46 1   
    88    45    87 1   
    89    45    88 1   
    90    45    89 1   
    91    46    47 1   
    92    47    48 1   
    93    47    49 1   
    94    50    51 1   
    95    50    52 1   
    96    51    90 1   
    97    51    91 1   
    98    51    92 1   
@<TRIPOS>SUBSTRUCTURE
     1 WUC         1 TEMP              0 ****  ****    0 ROOT
