@<TRIPOS>MOLECULE
WUC
   92    98     1     0     0
SMALL
abcg2


@<TRIPOS>ATOM
      1 C1          -8.2570    65.6540     8.2610 c3         1 WUC       0.146900
      2 C3          -8.9810    63.6620     9.2900 c3         1 WUC       0.157600
      3 C4         -10.1970    62.8250     9.5900 c3         1 WUC       0.160600
      4 C6         -11.8640    61.4700     8.5970 c3         1 WUC       0.134300
      5 C7         -12.2960    60.8890     7.2960 cc         1 WUC       0.255300
      6 C11        -12.4430    59.7290     5.4160 cd         1 WUC      -0.053000
      7 C12        -11.6340    59.9050     6.5290 cc         1 WUC      -0.167300
      8 C15        -10.4590    56.3930     6.4510 c3         1 WUC       0.057300
      9 C16         -9.1740    56.3310     5.7080 cc         1 WUC       0.260300
     10 C17         -8.7830    57.0590     4.5670 cc         1 WUC      -0.205000
     11 C18         -7.4710    56.6920     4.3220 cd         1 WUC      -0.145300
     12 C19         -6.5280    57.1140     3.2470 c3         1 WUC      -0.007100
     13 C21         -7.4690    55.8140     1.2600 ca         1 WUC      -0.021300
     14 C23         -8.6540    56.1810    -0.8260 ca         1 WUC       0.018000
     15 C24         -8.7370    56.7640    -2.1140 ca         1 WUC      -0.161000
     16 C27        -10.9220    55.7490    -2.4490 ca         1 WUC      -0.170000
     17 C30         -9.6490    54.8000     0.9360 ca         1 WUC       0.183100
     18 C31         -8.5410    55.0120     1.7220 ca         1 WUC      -0.206000
     19 C33        -10.8840    53.7370     2.7060 c3         1 WUC       0.161600
     20 C34        -12.2900    53.2090     2.8980 c3         1 WUC      -0.076400
     21 C35        -13.4080    54.2150     2.5700 c3         1 WUC       0.024800
     22 C36        -13.3930    55.4490     3.4200 cc         1 WUC      -0.180400
     23 C37        -12.7060    56.6680     3.1210 ca         1 WUC      -0.088800
     24 C38        -11.9240    57.0790     2.0380 ca         1 WUC      -0.055000
     25 C39        -11.3320    58.3280     2.0590 ca         1 WUC      -0.160000
     26 C40        -11.5190    59.1660     3.1640 ca         1 WUC       0.134000
     27 O2          -9.3670    64.8400     8.5990 os         1 WUC      -0.447000
     28 O5         -10.7200    62.2960     8.3800 os         1 WUC      -0.450000
     29 N8         -13.4180    61.2920     6.6980 nd         1 WUC      -0.519800
     30 N9         -13.4950    60.5770     5.5600 na         1 WUC       0.139800
     31 C10        -14.5700    60.8070     4.6130 c3         1 WUC       0.071900
     32 C13        -10.3450    59.2380     6.8580 c3         1 WUC       0.171900
     33 S14        -10.4760    57.6560     7.7950 ss         1 WUC      -0.499000
     34 C20         -6.2780    56.0530     2.1480 c3         1 WUC      -0.030100
     35 C22         -7.5330    56.3870     0.0130 ca         1 WUC      -0.158000
     36 C25         -9.8450    56.5380    -2.8760 ca         1 WUC       0.173000
     37 F26         -9.9270    57.0990    -4.1120 f          1 WUC      -0.194000
     38 C28        -10.8590    55.1750    -1.2040 ca         1 WUC      -0.036000
     39 C29         -9.7350    55.3720    -0.3690 ca         1 WUC      -0.083000
     40 O32        -10.7260    54.0710     1.3170 os         1 WUC      -0.361100
     41 CL41       -10.7070    60.7220     3.1490 cl         1 WUC      -0.241000
     42 C42        -12.3060    58.8250     4.2630 ca         1 WUC      -0.061000
     43 C43        -12.9260    57.5620     4.2080 ca         1 WUC      -0.047200
     44 N44        -13.7540    56.9260     5.1040 na         1 WUC      -0.071700
     45 C45        -14.1740    57.4400     6.4020 c3         1 WUC       0.052900
     46 C46        -14.0280    55.6430     4.6270 cd         1 WUC      -0.050300
     47 C47        -14.9850    54.6960     5.3190 c          1 WUC       0.717200
     48 O48        -14.6170    53.5010     5.4100 o          1 WUC      -0.699500
     49 O49        -16.0770    55.1810     5.7100 o          1 WUC      -0.699500
     50 N50         -7.1470    55.7920     5.2890 na         1 WUC       0.109800
     51 C51         -5.9070    55.0620     5.4540 c3         1 WUC       0.077900
     52 N52         -8.1740    55.5570     6.1360 nd         1 WUC      -0.517800
     53 H1          -8.6410    66.5300     7.7410 h1         1 WUC       0.025700
     54 H2          -7.7130    65.9750     9.1580 h1         1 WUC       0.025700
     55 H3          -7.5610    65.1200     7.6030 h1         1 WUC       0.025700
     56 H4          -8.2700    63.0850     8.6830 h1         1 WUC       0.028700
     57 H5          -8.4850    63.9220    10.2350 h1         1 WUC       0.028700
     58 H6         -10.9570    63.4330    10.0960 h1         1 WUC       0.029200
     59 H7          -9.9100    62.0080    10.2650 h1         1 WUC       0.029200
     60 H8         -12.6810    62.0590     9.0290 h1         1 WUC       0.037700
     61 H9         -11.6050    60.6740     9.3070 h1         1 WUC       0.037700
     62 H10        -11.2890    56.5860     5.7800 h1         1 WUC       0.096200
     63 H11        -10.6490    55.4550     6.9720 h1         1 WUC       0.096200
     64 H12         -9.3750    57.7450     3.9870 ha         1 WUC       0.161000
     65 H13         -5.5650    57.3790     3.6900 hc         1 WUC       0.055700
     66 H14         -6.9230    58.0190     2.7840 hc         1 WUC       0.055700
     67 H15         -7.9310    57.3830    -2.4870 ha         1 WUC       0.125000
     68 H16        -11.7770    55.6110    -3.0980 ha         1 WUC       0.129000
     69 H17         -8.4800    54.5710     2.7050 ha         1 WUC       0.129000
     70 H18        -10.1440    52.9830     2.9850 h1         1 WUC       0.042700
     71 H19        -10.7090    54.6320     3.3090 h1         1 WUC       0.042700
     72 H20        -12.4190    52.3160     2.2800 hc         1 WUC       0.062700
     73 H21        -12.3900    52.9000     3.9400 hc         1 WUC       0.062700
     74 H22        -13.3330    54.5010     1.5180 hc         1 WUC       0.045200
     75 H23        -14.3610    53.7000     2.6910 hc         1 WUC       0.045200
     76 H24        -11.7700    56.4250     1.1940 ha         1 WUC       0.121000
     77 H25        -10.7110    58.6570     1.2380 ha         1 WUC       0.119000
     78 H26        -15.3350    61.3940     5.1140 h1         1 WUC       0.060367
     79 H27        -14.2010    61.3510     3.7430 h1         1 WUC       0.060367
     80 H28        -14.9930    59.8580     4.2870 h1         1 WUC       0.060367
     81 H29         -9.7560    59.0350     5.9660 h1         1 WUC       0.076200
     82 H30         -9.7500    59.8880     7.4970 h1         1 WUC       0.076200
     83 H31         -5.9710    55.1150     2.6170 hc         1 WUC       0.043700
     84 H32         -5.4410    56.3960     1.5390 hc         1 WUC       0.043700
     85 H33         -6.7170    57.0030    -0.3460 ha         1 WUC       0.108000
     86 H34        -11.6780    54.5670    -0.8490 ha         1 WUC       0.139000
     87 H35        -14.7630    56.6750     6.8950 h1         1 WUC       0.061367
     88 H36        -13.3070    57.6880     7.0120 h1         1 WUC       0.061367
     89 H37        -14.7950    58.3270     6.2830 h1         1 WUC       0.061367
     90 H39         -5.7510    54.8830     6.5150 h1         1 WUC       0.049367
     91 H40         -5.9430    54.1070     4.9270 h1         1 WUC       0.049367
     92 H41         -5.0810    55.6530     5.0650 h1         1 WUC       0.049367
@<TRIPOS>BOND
     1     1    27 1   
     2     1    53 1   
     3     1    54 1   
     4     1    55 1   
     5     2     3 1   
     6     2    27 1   
     7     2    56 1   
     8     2    57 1   
     9     3    28 1   
    10     3    58 1   
    11     3    59 1   
    12     4     5 1   
    13     4    28 1   
    14     4    60 1   
    15     4    61 1   
    16     5     7 1   
    17     5    29 2   
    18     6     7 2   
    19     6    30 1   
    20     6    42 1   
    21     7    32 1   
    22     8     9 1   
    23     8    33 1   
    24     8    62 1   
    25     8    63 1   
    26     9    10 1   
    27     9    52 2   
    28    10    11 2   
    29    10    64 1   
    30    11    12 1   
    31    11    50 1   
    32    12    34 1   
    33    12    65 1   
    34    12    66 1   
    35    13    18 ar  
    36    13    34 1   
    37    13    35 ar  
    38    14    15 ar  
    39    14    35 ar  
    40    14    39 ar  
    41    15    36 ar  
    42    15    67 1   
    43    16    36 ar  
    44    16    38 ar  
    45    16    68 1   
    46    17    18 ar  
    47    17    39 ar  
    48    17    40 1   
    49    18    69 1   
    50    19    20 1   
    51    19    40 1   
    52    19    70 1   
    53    19    71 1   
    54    20    21 1   
    55    20    72 1   
    56    20    73 1   
    57    21    22 1   
    58    21    74 1   
    59    21    75 1   
    60    22    23 1   
    61    22    46 2   
    62    23    24 ar  
    63    23    43 ar  
    64    24    25 ar  
    65    24    76 1   
    66    25    26 ar  
    67    25    77 1   
    68    26    41 1   
    69    26    42 ar  
    70    29    30 1   
    71    30    31 1   
    72    31    78 1   
    73    31    79 1   
    74    31    80 1   
    75    32    33 1   
    76    32    81 1   
    77    32    82 1   
    78    34    83 1   
    79    34    84 1   
    80    35    85 1   
    81    36    37 1   
    82    38    39 ar  
    83    38    86 1   
    84    42    43 ar  
    85    43    44 1   
    86    44    45 1   
    87    44    46 1   
    88    45    87 1   
    89    45    88 1   
    90    45    89 1   
    91    46    47 1   
    92    47    48 1   
    93    47    49 1   
    94    50    51 1   
    95    50    52 1   
    96    51    90 1   
    97    51    91 1   
    98    51    92 1   
@<TRIPOS>SUBSTRUCTURE
     1 WUC         1 TEMP              0 ****  ****    0 ROOT
