@<TRIPOS>MOLECULE
WUD
   65    68     1     0     0
SMALL
No Charge or Current Charge


@<TRIPOS>ATOM
      1 C           -8.0810    -5.9800     1.5720 c3         1 WUD      -0.064900
      2 O           -5.7410    -4.3070     2.1910 o          1 WUD      -0.492000
      3 C1          -7.7240    -5.3390     0.2440 c2         1 WUD      -0.145200
      4 C10         -3.7580    -0.7710     3.4220 c3         1 WUD       0.180500
      5 C11         -3.9690     0.5630     4.2430 c2         1 WUD      -0.158400
      6 C12         -4.5270     1.7060     3.7780 c2         1 WUD      -0.154200
      7 C13         -5.0520     1.7630     2.3900 c3         1 WUD      -0.128500
      8 C14         -3.9720     1.2750     1.4400 c          1 WUD       0.600100
      9 C15         -5.7200     2.9600     1.7540 cx         1 WUD      -0.096700
     10 C16         -6.4280     2.5250     0.4700 cx         1 WUD      -0.124700
     11 C17         -7.2110     3.2150     1.5780 cx         1 WUD      -0.081000
     12 C18         -8.2490     2.4850     2.4440 c3         1 WUD      -0.062600
     13 C19         -7.6760     4.6500     1.3290 c3         1 WUD      -0.062600
     14 C2          -6.7220    -4.4580    -0.0270 ce         1 WUD      -0.168400
     15 C20         -6.6660     1.0240     0.0880 c3         1 WUD      -0.046400
     16 C21         -5.4070     0.1430    -0.2930 c3         1 WUD      -0.023700
     17 C22         -4.8270     0.6840    -1.6290 c3         1 WUD      -0.097100
     18 C23         -3.4640     0.5280     5.6890 c3         1 WUD       0.195800
     19 C24         -1.6130    -2.7980     0.1580 c3         1 WUD      -0.038900
     20 C3          -6.5450    -3.9410    -1.4540 c3         1 WUD      -0.040900
     21 C4          -5.7400    -3.9560     1.0160 c          1 WUD       0.606300
     22 C5          -3.9130    -2.4480     1.4230 c5         1 WUD       0.174500
     23 C6          -2.7900    -1.9350     0.5570 c2         1 WUD      -0.132400
     24 C7          -2.9940    -0.6660     0.2150 c2         1 WUD      -0.178200
     25 C8          -4.2770    -0.0810     0.8160 c5         1 WUD      -0.107800
     26 C9          -4.5320    -1.1090     2.0430 c5         1 WUD       0.193000
     27 O1          -4.8320    -3.0710     0.4760 os         1 WUD      -0.432100
     28 O2          -2.9560     1.9340     1.2320 o          1 WUD      -0.508100
     29 O3          -2.3170    -0.3190     5.8440 oh         1 WUD      -0.670000
     30 O4          -4.0010    -1.8580     4.3250 oh         1 WUD      -0.676000
     31 H1          -8.9530    -6.6380     1.4690 hc         1 WUD       0.051367
     32 H2          -7.2540    -6.5880     1.9560 hc         1 WUD       0.051367
     33 H3          -8.3280    -5.2230     2.3260 hc         1 WUD       0.051367
     34 H4          -8.3880    -5.6570    -0.5620 ha         1 WUD       0.169000
     35 H5          -2.6910    -0.7770     3.1550 h1         1 WUD       0.067700
     36 H6          -4.6410     2.6050     4.3890 ha         1 WUD       0.190000
     37 H7          -5.8490     1.0390     2.4570 hc         1 WUD       0.100700
     38 H8          -5.0640     3.8270     1.6930 hc         1 WUD       0.093700
     39 H9          -6.1950     3.1190    -0.4110 hc         1 WUD       0.078700
     40 H10         -8.4470     3.0450     3.3660 hc         1 WUD       0.038033
     41 H11         -9.1990     2.3870     1.9060 hc         1 WUD       0.038033
     42 H12         -7.9430     1.4800     2.7480 hc         1 WUD       0.038033
     43 H13         -7.7910     5.1970     2.2720 hc         1 WUD       0.038033
     44 H14         -6.9590     5.2050     0.7120 hc         1 WUD       0.038033
     45 H15         -8.6410     4.6650     0.8080 hc         1 WUD       0.038033
     46 H16         -7.3570     1.0090    -0.7640 hc         1 WUD       0.051700
     47 H17         -7.2240     0.4950     0.8670 hc         1 WUD       0.051700
     48 H18         -5.8080    -0.8480    -0.5350 hc         1 WUD       0.069700
     49 H19         -4.1290    -0.0310    -2.0790 hc         1 WUD       0.037700
     50 H20         -5.6240     0.8530    -2.3630 hc         1 WUD       0.037700
     51 H21         -4.3000     1.6330    -1.4750 hc         1 WUD       0.037700
     52 H22         -3.2100     1.5490     6.0050 h1         1 WUD       0.032200
     53 H23         -4.2760     0.1850     6.3440 h1         1 WUD       0.032200
     54 H24         -1.9460    -3.6790    -0.4020 hc         1 WUD       0.045700
     55 H25         -0.9070    -2.2470    -0.4740 hc         1 WUD       0.045700
     56 H26         -1.0660    -3.1480     1.0420 hc         1 WUD       0.045700
     57 H27         -6.7290    -2.8620    -1.5110 hc         1 WUD       0.046033
     58 H28         -5.5310    -4.1290    -1.8260 hc         1 WUD       0.046033
     59 H29         -7.2350    -4.4220    -2.1570 hc         1 WUD       0.046033
     60 H30         -3.5570    -3.1740     2.1680 h1         1 WUD       0.088700
     61 H32         -2.2940    -0.1030    -0.4080 ha         1 WUD       0.207000
     62 H34         -1.9300    -0.1150     6.7260 ho         1 WUD       0.446000
     63 H35         -3.4200    -1.6430     5.0970 ho         1 WUD       0.462000
     64 H36         -5.8470    -1.8210     3.2450 ho         1 WUD       0.479000
     65 O5          -5.9060    -1.3080     2.4050 oh         1 WUD      -0.651000
@<TRIPOS>BOND
     1     1     3 1   
     2     1    31 1   
     3     1    32 1   
     4     1    33 1   
     5     2    21 2   
     6     3    14 2   
     7     3    34 1   
     8     4     5 1   
     9     4    26 1   
    10     4    30 1   
    11     4    35 1   
    12     5     6 2   
    13     5    18 1   
    14     6     7 1   
    15     6    36 1   
    16     7     8 1   
    17     7     9 1   
    18     7    37 1   
    19     8    25 1   
    20     8    28 2   
    21     9    10 1   
    22     9    11 1   
    23     9    38 1   
    24    10    11 1   
    25    10    15 1   
    26    10    39 1   
    27    11    12 1   
    28    11    13 1   
    29    12    40 1   
    30    12    41 1   
    31    12    42 1   
    32    13    43 1   
    33    13    44 1   
    34    13    45 1   
    35    14    20 1   
    36    14    21 1   
    37    15    16 1   
    38    15    46 1   
    39    15    47 1   
    40    16    17 1   
    41    16    25 1   
    42    16    48 1   
    43    17    49 1   
    44    17    50 1   
    45    17    51 1   
    46    18    29 1   
    47    18    52 1   
    48    18    53 1   
    49    19    23 1   
    50    19    54 1   
    51    19    55 1   
    52    19    56 1   
    53    20    57 1   
    54    20    58 1   
    55    20    59 1   
    56    21    27 1   
    57    22    23 1   
    58    22    26 1   
    59    22    27 1   
    60    22    60 1   
    61    23    24 2   
    62    24    25 1   
    63    24    61 1   
    64    25    26 1   
    65    26    65 1   
    66    29    62 1   
    67    30    63 1   
    68    64    65 1   
@<TRIPOS>SUBSTRUCTURE
     1 WUD         1 TEMP              0 ****  ****    0 ROOT
