@<TRIPOS>MOLECULE
WUD
   65    68     1     0     0
SMALL
abcg2


@<TRIPOS>ATOM
      1 C           -7.1710    -6.7100     1.2190 c3         1 WUD      -0.064900
      2 O           -5.8740    -4.3300     2.3760 o          1 WUD      -0.492000
      3 C1          -7.4490    -5.5920     0.2700 c2         1 WUD      -0.145200
      4 C10         -3.9130    -0.7110     3.4090 c3         1 WUD       0.180500
      5 C11         -4.0320     0.6300     4.1550 c2         1 WUD      -0.158400
      6 C12         -4.4980     1.7860     3.6790 c2         1 WUD      -0.154200
      7 C13         -5.0480     1.8210     2.2930 c3         1 WUD      -0.128500
      8 C14         -3.9420     1.3000     1.4080 c          1 WUD       0.600100
      9 C15         -5.5980     3.0160     1.5730 cx         1 WUD      -0.096700
     10 C16         -6.3510     2.5660     0.3310 cx         1 WUD      -0.124700
     11 C17         -7.0700     3.2820     1.4530 cx         1 WUD      -0.081000
     12 C18         -8.0810     2.5800     2.3300 c3         1 WUD      -0.062600
     13 C19         -7.4530     4.7190     1.1770 c3         1 WUD      -0.062600
     14 C2          -6.9160    -4.3650     0.2230 ce         1 WUD      -0.168400
     15 C20         -6.5700     1.0790     0.0570 c3         1 WUD      -0.046400
     16 C21         -5.3400     0.1850    -0.2570 c3         1 WUD      -0.023700
     17 C22         -4.6690     0.7080    -1.5290 c3         1 WUD      -0.097100
     18 C23         -3.5150     0.5760     5.5690 c3         1 WUD       0.195800
     19 C24         -1.9090    -3.0250     0.3260 c3         1 WUD      -0.038900
     20 C3          -7.2950    -3.3810    -0.8480 c3         1 WUD      -0.040900
     21 C4          -5.9240    -3.9300     1.2380 c          1 WUD       0.606300
     22 C5          -4.1120    -2.3950     1.5650 c5         1 WUD       0.174500
     23 C6          -2.9550    -2.0310     0.6900 c2         1 WUD      -0.132400
     24 C7          -3.0450    -0.7590     0.3200 c2         1 WUD      -0.178200
     25 C8          -4.2530    -0.0590     0.8730 c5         1 WUD      -0.107800
     26 C9          -4.6630    -1.0190     2.0590 c5         1 WUD       0.193000
     27 O1          -5.0790    -3.0360     0.7280 os         1 WUD      -0.432100
     28 O2          -2.9430     1.9300     1.1540 o          1 WUD      -0.508100
     29 O3          -2.2510    -0.0600     5.5860 oh         1 WUD      -0.670000
     30 O4          -4.3590    -1.7290     4.2880 oh         1 WUD      -0.676000
     31 H1          -7.3530    -7.6650     0.7280 hc         1 WUD       0.051367
     32 H2          -6.1540    -6.7100     1.6040 hc         1 WUD       0.051367
     33 H3          -7.8430    -6.6650     2.0790 hc         1 WUD       0.051367
     34 H4          -8.1780    -5.8190    -0.5020 ha         1 WUD       0.169000
     35 H5          -2.8450    -0.8410     3.1890 h1         1 WUD       0.067700
     36 H6          -4.4620     2.6850     4.2860 ha         1 WUD       0.190000
     37 H7          -5.8410     1.0820     2.3030 hc         1 WUD       0.100700
     38 H8          -4.9330     3.8680     1.4710 hc         1 WUD       0.093700
     39 H9          -6.1880     3.1600    -0.5620 hc         1 WUD       0.078700
     40 H10         -8.2450     3.1550     3.2440 hc         1 WUD       0.038033
     41 H11         -9.0420     2.5010     1.8170 hc         1 WUD       0.038033
     42 H12         -7.7920     1.5750     2.6340 hc         1 WUD       0.038033
     43 H13         -7.5370     5.2870     2.1060 hc         1 WUD       0.038033
     44 H14         -6.7170     5.2200     0.5460 hc         1 WUD       0.038033
     45 H15         -8.4170     4.7720     0.6660 hc         1 WUD       0.038033
     46 H16         -7.1980     1.0120    -0.8370 hc         1 WUD       0.051700
     47 H17         -7.1650     0.6180     0.8420 hc         1 WUD       0.051700
     48 H18         -5.7470    -0.8010    -0.4910 hc         1 WUD       0.069700
     49 H19         -3.9290     0.0140    -1.9270 hc         1 WUD       0.037700
     50 H20         -5.4230     0.8510    -2.3040 hc         1 WUD       0.037700
     51 H21         -4.1770     1.6700    -1.3770 hc         1 WUD       0.037700
     52 H22         -3.4570     1.5970     5.9630 h1         1 WUD       0.032200
     53 H23         -4.2310     0.0370     6.2020 h1         1 WUD       0.032200
     54 H24         -2.3480    -3.9040    -0.1490 hc         1 WUD       0.045700
     55 H25         -1.1760    -2.6010    -0.3590 hc         1 WUD       0.045700
     56 H26         -1.3810    -3.3780     1.2150 hc         1 WUD       0.045700
     57 H27         -7.6250    -2.4310    -0.4240 hc         1 WUD       0.046033
     58 H28         -6.4620    -3.1610    -1.5170 hc         1 WUD       0.046033
     59 H29         -8.1100    -3.7780    -1.4520 hc         1 WUD       0.046033
     60 H30         -3.8370    -3.0570     2.3870 h1         1 WUD       0.088700
     61 H32         -2.3260    -0.2600    -0.3150 ha         1 WUD       0.207000
     62 H34         -2.0260    -0.2600     6.4990 ho         1 WUD       0.446000
     63 H35         -3.6350    -1.9770     4.8720 ho         1 WUD       0.462000
     64 H36         -6.2200    -1.4860     3.1090 ho         1 WUD       0.479000
     65 O5          -6.0430    -1.0600     2.2610 oh         1 WUD      -0.651000
@<TRIPOS>BOND
     1     1     3 1   
     2     1    31 1   
     3     1    32 1   
     4     1    33 1   
     5     2    21 2   
     6     3    14 2   
     7     3    34 1   
     8     4     5 1   
     9     4    26 1   
    10     4    30 1   
    11     4    35 1   
    12     5     6 2   
    13     5    18 1   
    14     6     7 1   
    15     6    36 1   
    16     7     8 1   
    17     7     9 1   
    18     7    37 1   
    19     8    25 1   
    20     8    28 2   
    21     9    10 1   
    22     9    11 1   
    23     9    38 1   
    24    10    11 1   
    25    10    15 1   
    26    10    39 1   
    27    11    12 1   
    28    11    13 1   
    29    12    40 1   
    30    12    41 1   
    31    12    42 1   
    32    13    43 1   
    33    13    44 1   
    34    13    45 1   
    35    14    20 1   
    36    14    21 1   
    37    15    16 1   
    38    15    46 1   
    39    15    47 1   
    40    16    17 1   
    41    16    25 1   
    42    16    48 1   
    43    17    49 1   
    44    17    50 1   
    45    17    51 1   
    46    18    29 1   
    47    18    52 1   
    48    18    53 1   
    49    19    23 1   
    50    19    54 1   
    51    19    55 1   
    52    19    56 1   
    53    20    57 1   
    54    20    58 1   
    55    20    59 1   
    56    21    27 1   
    57    22    23 1   
    58    22    26 1   
    59    22    27 1   
    60    22    60 1   
    61    23    24 2   
    62    24    25 1   
    63    24    61 1   
    64    25    26 1   
    65    26    65 1   
    66    29    62 1   
    67    30    63 1   
    68    64    65 1   
@<TRIPOS>SUBSTRUCTURE
     1 WUD         1 TEMP              0 ****  ****    0 ROOT
