@<TRIPOS>MOLECULE
WUG
   20    20     1     0     0
SMALL
abcg2


@<TRIPOS>ATOM
      1 C01          4.9920   -75.2110    20.4910 c3         1 WUG      -0.107400
      2 C02          6.0680   -76.1180    20.0030 cc         1 WUG       0.253300
      3 C03          6.3470   -77.3990    20.3940 cd         1 WUG      -0.207300
      4 C04          5.7350   -78.3120    21.3990 c3         1 WUG       0.226100
      5 N05          5.6620   -79.6720    20.8840 n8         1 WUG      -1.013200
      6 N06          7.4330   -77.7700    19.6440 na         1 WUG      -0.283500
      7 C07          7.7660   -76.7380    18.8410 cd         1 WUG       0.407800
      8 C08          8.8940   -76.7890    17.8740 c3         1 WUG      -0.121400
      9 N09          6.9620   -75.7220    19.0380 nc         1 WUG      -0.681000
     10 H1           4.4530   -74.7540    19.6600 hc         1 WUG       0.040367
     11 H2           4.2650   -75.7470    21.1010 hc         1 WUG       0.040367
     12 H3           5.3900   -74.3970    21.1020 hc         1 WUG       0.040367
     13 H4           6.3520   -78.3360    22.3030 h1         1 WUG       0.043200
     14 H5           4.7690   -77.8900    21.7050 h1         1 WUG       0.043200
     15 H6           5.3340   -80.2880    21.6160 hn         1 WUG       0.401000
     16 H7           4.9710   -79.7200    20.1460 hn         1 WUG       0.401000
     17 H9           7.8550   -78.6850    19.6580 hn         1 WUG       0.361000
     18 H10          8.9060   -75.8800    17.2780 hc         1 WUG       0.053033
     19 H11          9.8570   -76.8750    18.3810 hc         1 WUG       0.053033
     20 H12          8.8050   -77.6400    17.1970 hc         1 WUG       0.053033
@<TRIPOS>BOND
     1     1     2 1   
     2     1    10 1   
     3     1    11 1   
     4     1    12 1   
     5     2     3 2   
     6     2     9 1   
     7     3     4 1   
     8     3     6 1   
     9     4     5 1   
    10     4    13 1   
    11     4    14 1   
    12     5    15 1   
    13     5    16 1   
    14     6     7 1   
    15     6    17 1   
    16     7     8 1   
    17     7     9 2   
    18     8    18 1   
    19     8    19 1   
    20     8    20 1   
@<TRIPOS>SUBSTRUCTURE
     1 WUG         1 TEMP              0 ****  ****    0 ROOT
