@<TRIPOS>MOLECULE
WUG
   20    20     1     0     0
SMALL
No Charge or Current Charge


@<TRIPOS>ATOM
      1 C01          5.0440   -75.2050    20.5320 c3         1 WUG      -0.107400
      2 C02          6.0970   -76.1360    19.9990 cc         1 WUG       0.253300
      3 C03          6.3520   -77.4250    20.3900 cd         1 WUG      -0.207300
      4 C04          5.6850   -78.2640    21.4480 c3         1 WUG       0.226100
      5 N05          5.7840   -79.6920    21.1000 n8         1 WUG      -1.013200
      6 N06          7.4210   -77.8300    19.6030 na         1 WUG      -0.283500
      7 C07          7.7400   -76.7750    18.7780 cd         1 WUG       0.407800
      8 C08          8.8430   -76.7730    17.7590 c3         1 WUG      -0.121400
      9 N09          6.9500   -75.7380    19.0080 nc         1 WUG      -0.681000
     10 H1           5.1750   -74.1860    20.1480 hc         1 WUG       0.040367
     11 H2           4.0440   -75.5490    20.2440 hc         1 WUG       0.040367
     12 H3           5.0850   -75.1600    21.6270 hc         1 WUG       0.040367
     13 H4           6.1730   -78.0920    22.4190 h1         1 WUG       0.043200
     14 H5           4.6250   -77.9840    21.5330 h1         1 WUG       0.043200
     15 H6           5.2600   -80.2370    21.7950 hn         1 WUG       0.401000
     16 H7           5.2630   -79.8470    20.2290 hn         1 WUG       0.401000
     17 H9           7.8780   -78.7330    19.6210 hn         1 WUG       0.361000
     18 H10          8.6010   -76.1170    16.9150 hc         1 WUG       0.053033
     19 H11          9.7810   -76.4210    18.2040 hc         1 WUG       0.053033
     20 H12          9.0130   -77.7800    17.3620 hc         1 WUG       0.053033
@<TRIPOS>BOND
     1     1     2 1   
     2     1    10 1   
     3     1    11 1   
     4     1    12 1   
     5     2     3 2   
     6     2     9 1   
     7     3     4 1   
     8     3     6 1   
     9     4     5 1   
    10     4    13 1   
    11     4    14 1   
    12     5    15 1   
    13     5    16 1   
    14     6     7 1   
    15     6    17 1   
    16     7     8 1   
    17     7     9 2   
    18     8    18 1   
    19     8    19 1   
    20     8    20 1   
@<TRIPOS>SUBSTRUCTURE
     1 WUG         1 TEMP              0 ****  ****    0 ROOT
