@<TRIPOS>MOLECULE
WUI
   63    67     1     0     0
SMALL
abcg2


@<TRIPOS>ATOM
      1 C1          23.3290    16.9220    31.3440 cy         1 WUI      -0.080700
      2 C2          23.3890    17.8790    32.5580 cy         1 WUI      -0.068900
      3 C3          22.5660    16.8430    33.3910 cy         1 WUI      -0.061000
      4 C7          21.5140    14.6430    35.3050 c3         1 WUI       0.065900
      5 C8          21.0890    17.2140    33.4450 ca         1 WUI      -0.076300
      6 C9          20.6810    18.1500    34.3940 ca         1 WUI      -0.071000
      7 C10         19.3470    18.5390    34.5140 ca         1 WUI      -0.033800
      8 C11         18.4040    17.9840    33.6420 ca         1 WUI      -0.101000
      9 C12         18.8020    17.0660    32.6810 ca         1 WUI      -0.116000
     10 C13         20.1350    16.6800    32.5810 ca         1 WUI      -0.103000
     11 C14         18.9160    19.4820    35.5680 cc         1 WUI      -0.160400
     12 C15         19.6740    20.7070    35.7840 c          1 WUI       0.559200
     13 C16         18.0880    21.2630    37.5330 cc         1 WUI       0.053600
     14 C20         19.9040    22.8410    37.0330 c3         1 WUI       0.180000
     15 C21         18.9590    23.9860    37.2040 cc         1 WUI      -0.250300
     16 C22         18.6570    24.7000    38.3510 cd         1 WUI      -0.142000
     17 F2          15.0600    19.7530    37.4800 f          1 WUI      -0.115667
     18 F           16.3250    18.5300    38.7410 f          1 WUI      -0.115667
     19 F1          16.0330    20.6310    39.2100 f          1 WUI      -0.115667
     20 C17         17.3980    20.1050    37.3500 cd         1 WUI      -0.332200
     21 N3          19.1620    21.5660    36.7730 n          1 WUI      -0.268000
     22 C25         20.8630    22.6380    38.2020 c3         1 WUI      -0.103100
     23 C23         18.1650    24.5890    36.2060 cc         1 WUI       0.265900
     24 N5          17.4370    25.5880    36.6990 nd         1 WUI      -0.515800
     25 N4          17.7510    25.6410    38.0090 na         1 WUI       0.123800
     26 O           20.6880    21.0240    35.1600 o          1 WUI      -0.536000
     27 C18         17.8210    19.2130    36.3380 cd         1 WUI      -0.051000
     28 C4          22.9680    15.7780    32.3180 cy         1 WUI      -0.068900
     29 C           24.5680    16.7750    30.4850 c3         1 WUI      -0.078100
     30 C5          23.0820    16.5700    34.7650 cc         1 WUI       0.408800
     31 N2          24.0520    17.2050    35.3830 nd         1 WUI      -0.364000
     32 N1          24.2150    16.6200    36.6280 nd         1 WUI      -0.364000
     33 C6          23.3370    15.6550    36.7130 cc         1 WUI       0.374400
     34 N           22.6000    15.5760    35.5730 na         1 WUI      -0.377000
     35 H1          22.4650    17.1640    30.7200 hc         1 WUI       0.055700
     36 H2          24.4020    17.9710    32.9460 hc         1 WUI       0.064450
     37 H3          22.9460    18.8680    32.4560 hc         1 WUI       0.064450
     38 H4          21.5310    13.8690    36.0680 h1         1 WUI       0.056033
     39 H5          20.5560    15.1600    35.3300 h1         1 WUI       0.056033
     40 H6          21.6490    14.1850    34.3270 h1         1 WUI       0.056033
     41 H7          21.4120    18.5740    35.0680 ha         1 WUI       0.138000
     42 H8          17.3650    18.2830    33.7120 ha         1 WUI       0.115000
     43 H9          18.0700    16.6460    32.0020 ha         1 WUI       0.114000
     44 H10         20.4160    15.9570    31.8300 ha         1 WUI       0.113000
     45 H11         17.8140    21.9940    38.2790 h4         1 WUI       0.222000
     46 H12         20.4820    22.9920    36.1260 h1         1 WUI       0.107700
     47 H13         19.0170    24.6120    39.3620 h4         1 WUI       0.156000
     48 H14         16.0730    26.5940    38.8040 h1         1 WUI       0.060033
     49 H15         17.4780    26.4700    39.8860 h1         1 WUI       0.060033
     50 H16         17.4850    27.6450    38.5510 h1         1 WUI       0.060033
     51 H17         21.4710    23.5320    38.3400 hc         1 WUI       0.051033
     52 H18         20.3190    22.4410    39.1270 hc         1 WUI       0.051033
     53 H19         21.5230    21.7950    38.0010 hc         1 WUI       0.051033
     54 H20         18.0970    24.3290    35.1600 h4         1 WUI       0.047100
     55 H21         17.2780    18.2890    36.1840 ha         1 WUI       0.200000
     56 H22         22.2200    15.0480    32.0140 hc         1 WUI       0.064450
     57 H23         23.8630    15.2470    32.6450 hc         1 WUI       0.064450
     58 H24         24.7840    17.7010    29.9470 hc         1 WUI       0.037367
     59 H25         25.4370    16.5320    31.1020 hc         1 WUI       0.037367
     60 H26         24.4440    15.9790    29.7460 hc         1 WUI       0.037367
     61 H27         23.1940    14.9930    37.5520 h5         1 WUI       0.060100
     62 C19         16.2180    19.7670    38.1930 c3         1 WUI       0.363200
     63 C24         17.1590    26.6530    38.8630 c3         1 WUI       0.074900
@<TRIPOS>BOND
     1     1     2 1   
     2     1    28 1   
     3     1    29 1   
     4     1    35 1   
     5     2     3 1   
     6     2    36 1   
     7     2    37 1   
     8     3     5 1   
     9     3    28 1   
    10     3    30 1   
    11     4    34 1   
    12     4    38 1   
    13     4    39 1   
    14     4    40 1   
    15     5     6 ar  
    16     5    10 ar  
    17     6     7 ar  
    18     6    41 1   
    19     7     8 ar  
    20     7    11 1   
    21     8     9 ar  
    22     8    42 1   
    23     9    10 ar  
    24     9    43 1   
    25    10    44 1   
    26    11    12 1   
    27    11    27 2   
    28    12    21 1   
    29    12    26 2   
    30    13    20 2   
    31    13    21 1   
    32    13    45 1   
    33    14    15 1   
    34    14    21 1   
    35    14    22 1   
    36    14    46 1   
    37    15    16 2   
    38    15    23 1   
    39    16    25 1   
    40    16    47 1   
    41    17    62 1   
    42    18    62 1   
    43    19    62 1   
    44    20    27 1   
    45    20    62 1   
    46    22    51 1   
    47    22    52 1   
    48    22    53 1   
    49    23    24 2   
    50    23    54 1   
    51    24    25 1   
    52    25    63 1   
    53    27    55 1   
    54    28    56 1   
    55    28    57 1   
    56    29    58 1   
    57    29    59 1   
    58    29    60 1   
    59    30    31 2   
    60    30    34 1   
    61    31    32 1   
    62    32    33 2   
    63    33    34 1   
    64    33    61 1   
    65    48    63 1   
    66    49    63 1   
    67    50    63 1   
@<TRIPOS>SUBSTRUCTURE
     1 WUI         1 TEMP              0 ****  ****    0 ROOT
