@<TRIPOS>MOLECULE
WUI
   63    67     1     0     0
SMALL
No Charge or Current Charge


@<TRIPOS>ATOM
      1 C1          23.2440    17.5300    31.7710 cy         1 WUI      -0.080700
      2 C2          23.5740    17.8070    33.2730 cy         1 WUI      -0.068900
      3 C3          22.5820    16.6230    33.6260 cy         1 WUI      -0.061000
      4 C7          21.4270    13.7320    34.3920 c3         1 WUI       0.065900
      5 C8          21.1100    17.0830    33.7230 ca         1 WUI      -0.076300
      6 C9          20.7700    18.0810    34.6610 ca         1 WUI      -0.071000
      7 C10         19.4430    18.5280    34.8020 ca         1 WUI      -0.033800
      8 C11         18.4380    17.9630    33.9950 ca         1 WUI      -0.101000
      9 C12         18.7590    16.9600    33.0670 ca         1 WUI      -0.116000
     10 C13         20.0850    16.5190    32.9330 ca         1 WUI      -0.103000
     11 C14         19.1170    19.5680    35.7800 cc         1 WUI      -0.160400
     12 C15         19.7900    20.8870    35.7870 c          1 WUI       0.559200
     13 C16         18.3830    21.3920    37.7280 cc         1 WUI       0.053600
     14 C20         19.9790    23.1180    36.8850 c3         1 WUI       0.180000
     15 C21         18.9080    24.1810    36.9610 cc         1 WUI      -0.250300
     16 C22         18.5940    25.0580    37.9600 cd         1 WUI      -0.142000
     17 F2          15.5850    19.2960    38.1400 f          1 WUI      -0.115667
     18 F           17.1470    18.8190    39.5750 f          1 WUI      -0.115667
     19 F1          16.3110    20.8240    39.5020 f          1 WUI      -0.115667
     20 C17         17.7550    20.1580    37.7180 cd         1 WUI      -0.332200
     21 N3          19.3600    21.7680    36.8010 n          1 WUI      -0.268000
     22 C25         20.9950    23.2030    38.0440 c3         1 WUI      -0.103100
     23 C23         17.9960    24.4440    35.9260 cc         1 WUI       0.265900
     24 N5          17.1380    25.4070    36.1900 nd         1 WUI      -0.515800
     25 N4          17.5120    25.7940    37.4680 na         1 WUI       0.123800
     26 O           20.6540    21.1900    34.9720 o          1 WUI      -0.536000
     27 C18         18.1480    19.2170    36.6990 cd         1 WUI      -0.051000
     28 C4          23.0740    16.0490    32.2350 cy         1 WUI      -0.068900
     29 C           24.3130    17.8480    30.7170 c3         1 WUI      -0.078100
     30 C5          22.8690    15.7920    34.8560 cc         1 WUI       0.408800
     31 N2          23.6880    16.1720    35.8270 nd         1 WUI      -0.364000
     32 N1          23.7250    15.1860    36.7810 nd         1 WUI      -0.364000
     33 C6          22.9290    14.2090    36.3820 cc         1 WUI       0.374400
     34 N           22.3730    14.5450    35.1720 na         1 WUI      -0.377000
     35 H1          22.3060    17.9920    31.4390 hc         1 WUI       0.055700
     36 H2          24.6210    17.6240    33.5460 hc         1 WUI       0.064450
     37 H3          23.3010    18.8020    33.6400 hc         1 WUI       0.064450
     38 H4          21.4140    12.7020    34.7730 h1         1 WUI       0.056033
     39 H5          20.4190    14.1560    34.4760 h1         1 WUI       0.056033
     40 H6          21.7270    13.7160    33.3370 h1         1 WUI       0.056033
     41 H7          21.5440    18.5110    35.2930 ha         1 WUI       0.138000
     42 H8          17.4090    18.3020    34.0850 ha         1 WUI       0.115000
     43 H9          17.9770    16.5220    32.4510 ha         1 WUI       0.114000
     44 H10         20.2980    15.7320    32.2150 ha         1 WUI       0.113000
     45 H11         18.1790    22.1780    38.4500 h4         1 WUI       0.222000
     46 H12         20.5410    23.3240    35.9630 h1         1 WUI       0.107700
     47 H13         19.0260    25.2190    38.9420 h4         1 WUI       0.156000
     48 H14         15.7450    26.5930    38.2910 h1         1 WUI       0.060033
     49 H15         17.2480    27.0330    39.1550 h1         1 WUI       0.060033
     50 H16         16.8660    27.7950    37.5830 h1         1 WUI       0.060033
     51 H17         21.4720    24.1890    38.0650 hc         1 WUI       0.051033
     52 H18         20.5070    23.0330    39.0100 hc         1 WUI       0.051033
     53 H19         21.7800    22.4470    37.9180 hc         1 WUI       0.051033
     54 H20         17.9350    23.9430    34.9680 h4         1 WUI       0.047100
     55 H21         17.6890    18.2300    36.6640 ha         1 WUI       0.200000
     56 H22         22.3730    15.4430    31.6540 hc         1 WUI       0.064450
     57 H23         24.0140    15.4840    32.2940 hc         1 WUI       0.064450
     58 H24         24.4480    18.9310    30.6120 hc         1 WUI       0.037367
     59 H25         25.2820    17.4130    30.9880 hc         1 WUI       0.037367
     60 H26         24.0270    17.4480    29.7370 hc         1 WUI       0.037367
     61 H27         22.7250    13.2780    36.8990 h5         1 WUI       0.060100
     62 C19         16.6980    19.7790    38.7360 c3         1 WUI       0.363200
     63 C24         16.7990    26.8710    38.1680 c3         1 WUI       0.074900
@<TRIPOS>BOND
     1     1     2 1   
     2     1    28 1   
     3     1    29 1   
     4     1    35 1   
     5     2     3 1   
     6     2    36 1   
     7     2    37 1   
     8     3     5 1   
     9     3    28 1   
    10     3    30 1   
    11     4    34 1   
    12     4    38 1   
    13     4    39 1   
    14     4    40 1   
    15     5     6 ar  
    16     5    10 ar  
    17     6     7 ar  
    18     6    41 1   
    19     7     8 ar  
    20     7    11 1   
    21     8     9 ar  
    22     8    42 1   
    23     9    10 ar  
    24     9    43 1   
    25    10    44 1   
    26    11    12 1   
    27    11    27 2   
    28    12    21 1   
    29    12    26 2   
    30    13    20 2   
    31    13    21 1   
    32    13    45 1   
    33    14    15 1   
    34    14    21 1   
    35    14    22 1   
    36    14    46 1   
    37    15    16 2   
    38    15    23 1   
    39    16    25 1   
    40    16    47 1   
    41    17    62 1   
    42    18    62 1   
    43    19    62 1   
    44    20    27 1   
    45    20    62 1   
    46    22    51 1   
    47    22    52 1   
    48    22    53 1   
    49    23    24 2   
    50    23    54 1   
    51    24    25 1   
    52    25    63 1   
    53    27    55 1   
    54    28    56 1   
    55    28    57 1   
    56    29    58 1   
    57    29    59 1   
    58    29    60 1   
    59    30    31 2   
    60    30    34 1   
    61    31    32 1   
    62    32    33 2   
    63    33    34 1   
    64    33    61 1   
    65    48    63 1   
    66    49    63 1   
    67    50    63 1   
@<TRIPOS>SUBSTRUCTURE
     1 WUI         1 TEMP              0 ****  ****    0 ROOT
