@<TRIPOS>MOLECULE
WUJ
   18    18     1     0     0
SMALL
bcc


@<TRIPOS>ATOM
      1 N01         37.1800   -79.4330     6.6340 nt         1 WUJ      -0.667000
      2 C02         38.3610   -78.7530     6.6610 c          1 WUJ       0.776100
      3 N03         39.3850   -79.4060     7.2710 ns         1 WUJ      -0.590900
      4 C04         40.6750   -78.7830     7.4470 c3         1 WUJ       0.094700
      5 C05         40.7120   -77.7570     8.5250 cc         1 WUJ       0.198000
      6 C06         40.9210   -76.4190     8.5120 cd         1 WUJ      -0.232300
      7 C07         40.8380   -75.9830     9.8710 cd         1 WUJ      -0.270300
      8 C08         40.5800   -77.0930    10.6000 cc         1 WUJ       0.231600
      9 O09         40.5050   -78.1740     9.7940 os         1 WUJ      -0.338800
     10 O10         38.5060   -77.6610     6.1250 o          1 WUJ      -0.634100
     11 H1          36.3600   -78.9010     6.3970 hn         1 WUJ       0.303000
     12 H2          37.0190   -80.1990     7.2680 hn         1 WUJ       0.303000
     13 H3          39.2050   -80.2550     7.7790 hn         1 WUJ       0.311500
     14 H4          41.3930   -79.5780     7.6570 h1         1 WUJ       0.070700
     15 H5          40.9940   -78.3130     6.5170 h1         1 WUJ       0.070700
     16 H6          41.1060   -75.8140     7.6380 ha         1 WUJ       0.167000
     17 H7          40.9510   -74.9800    10.2480 ha         1 WUJ       0.160000
     18 H8          40.4320   -77.2630    11.6540 h4         1 WUJ       0.049100
@<TRIPOS>BOND
     1     1     2 1   
     2     1    11 1   
     3     1    12 1   
     4     2     3 1   
     5     2    10 2   
     6     3     4 1   
     7     3    13 1   
     8     4     5 1   
     9     4    14 1   
    10     4    15 1   
    11     5     6 2   
    12     5     9 1   
    13     6     7 1   
    14     6    16 1   
    15     7     8 2   
    16     7    17 1   
    17     8     9 1   
    18     8    18 1   
@<TRIPOS>SUBSTRUCTURE
     1 WUJ         1 TEMP              0 ****  ****    0 ROOT
