@<TRIPOS>MOLECULE
WUJ
   18    18     1     0     0
SMALL
No Charge or Current Charge


@<TRIPOS>ATOM
      1 N01         37.1750   -79.2760     6.4520 nt         1 WUJ      -0.600000
      2 C02         38.3880   -78.7100     6.4940 c          1 WUJ       0.642100
      3 N03         39.2440   -79.3250     7.3610 ns         1 WUJ      -0.523900
      4 C04         40.6250   -78.8940     7.6080 c3         1 WUJ       0.094700
      5 C05         40.7280   -77.8310     8.6700 cc         1 WUJ       0.088300
      6 C06         40.5040   -76.4830     8.6140 cd         1 WUJ      -0.149000
      7 C07         40.7450   -75.9710     9.9060 cd         1 WUJ      -0.187000
      8 C08         41.1050   -77.0270    10.6980 cc         1 WUJ       0.121900
      9 O09         41.0990   -78.1850     9.9490 os         1 WUJ      -0.250000
     10 O10         38.6740   -77.7440     5.8130 o          1 WUJ      -0.634100
     11 H1          36.4760   -78.8880     5.8370 hn         1 WUJ       0.303000
     12 H2          36.9640   -80.0770     7.0260 hn         1 WUJ       0.303000
     13 H3          38.8870   -80.1190     7.8770 hn         1 WUJ       0.311500
     14 H4          41.2160   -79.7670     7.9160 h1         1 WUJ       0.070700
     15 H5          41.0620   -78.5140     6.6750 h1         1 WUJ       0.070700
     16 H6          40.1960   -75.9220     7.7370 ha         1 WUJ       0.149000
     17 H7          40.6610   -74.9360    10.2220 ha         1 WUJ       0.142000
     18 H8          41.3750   -77.0970    11.7430 h4         1 WUJ       0.049100
@<TRIPOS>BOND
     1     1     2 1   
     2     1    11 1   
     3     1    12 1   
     4     2     3 1   
     5     2    10 2   
     6     3     4 1   
     7     3    13 1   
     8     4     5 1   
     9     4    14 1   
    10     4    15 1   
    11     5     6 2   
    12     5     9 1   
    13     6     7 1   
    14     6    16 1   
    15     7     8 2   
    16     7    17 1   
    17     8     9 1   
    18     8    18 1   
@<TRIPOS>SUBSTRUCTURE
     1 WUJ         1 TEMP              0 ****  ****    0 ROOT
