@<TRIPOS>MOLECULE
WUK
   64    66     1     0     0
SMALL
No Charge or Current Charge


@<TRIPOS>ATOM
      1 C1          15.6810    25.5020     2.8030 c3         1 WUK      -0.143400
      2 C4          19.9780    26.8080     1.9810 c3         1 WUK       0.152900
      3 C8          14.4820    24.5740     2.5770 c          1 WUK       0.602100
      4 C9          11.5440    24.2250     1.1990 c          1 WUK       0.603100
      5 C12          7.6800    23.4980     0.6970 ca         1 WUK      -0.029300
      6 C13          7.6140    22.0860     0.7980 ca         1 WUK      -0.119000
      7 C15          5.1920    22.1410     0.7740 ca         1 WUK      -0.117000
      8 C17          6.4600    24.2400     0.6190 ca         1 WUK      -0.145600
      9 C19          5.0370    27.8150     0.8910 c3         1 WUK       0.159000
     10 C18          6.4300    25.7560     0.4740 c          1 WUK       0.603700
     11 C20          4.2010    28.2590     2.1060 c3         1 WUK      -0.103100
     12 C22          3.4900    27.3090    -1.0690 ca         1 WUK      -0.098000
     13 C23          2.8630    27.6300    -2.2800 ca         1 WUK      -0.107000
     14 C24          3.0860    28.8760    -2.8770 ca         1 WUK      -0.095000
     15 C25          3.9300    29.8130    -2.2570 ca         1 WUK      -0.037000
     16 C26          4.1250    31.0660    -2.8700 ca         1 WUK      -0.097000
     17 C27          4.9490    32.0270    -2.2680 ca         1 WUK      -0.107000
     18 C28          5.5780    31.7410    -1.0490 ca         1 WUK      -0.105000
     19 C21          4.3620    28.2240    -0.4310 ca         1 WUK      -0.080300
     20 C30          4.5690    29.5030    -1.0280 ca         1 WUK      -0.019000
     21 N3           5.3030    26.3770     0.9680 ns         1 WUK      -0.507900
     22 O2          18.7560    26.0790     1.7600 os         1 WUK      -0.447100
     23 O5           7.3040    26.3990    -0.0890 o          1 WUK      -0.586100
     24 C29          5.3900    30.4920    -0.4310 ca         1 WUK      -0.102000
     25 C16          5.2280    23.5370     0.6640 ca         1 WUK      -0.087000
     26 C14          6.3840    21.4150     0.8380 ca         1 WUK      -0.090000
     27 C11          9.0470    24.2110     0.7000 c3         1 WUK      -0.033100
     28 C10         10.2780    23.3660     1.1220 c3         1 WUK      -0.152400
     29 O4          12.1250    24.6270     0.1990 o          1 WUK      -0.571100
     30 N2          11.9990    24.4970     2.4810 ns         1 WUK      -0.375500
     31 N1          13.2380    25.1570     2.7640 ns         1 WUK      -0.376500
     32 O3          14.6150    23.3920     2.2860 o          1 WUK      -0.581100
     33 C2          16.3780    25.8790     1.4650 c3         1 WUK      -0.131400
     34 C3          17.5850    26.7900     1.6960 c          1 WUK       0.588100
     35 O1          17.5030    28.0040     1.8160 o          1 WUK      -0.492000
     36 H1          16.4070    24.9810     3.4380 hc         1 WUK       0.073700
     37 H2          15.3540    26.4240     3.2980 hc         1 WUK       0.073700
     38 H3          20.8330    26.1200     2.0100 h1         1 WUK       0.050700
     39 H4          20.1530    27.5330     1.1760 h1         1 WUK       0.050700
     40 H5          19.9450    27.3490     2.9350 h1         1 WUK       0.050700
     41 H6           8.5150    21.4820     0.8520 ha         1 WUK       0.116000
     42 H7           4.2360    21.6210     0.7990 ha         1 WUK       0.118000
     43 H8           6.0130    28.3080     0.9650 h1         1 WUK       0.081700
     44 H9           4.7110    28.0000     3.0410 hc         1 WUK       0.045700
     45 H10          4.0460    29.3440     2.0910 hc         1 WUK       0.045700
     46 H11          3.2180    27.7720     2.0990 hc         1 WUK       0.045700
     47 H12          3.2900    26.3360    -0.6270 ha         1 WUK       0.105000
     48 H13          2.2010    26.9100    -2.7570 ha         1 WUK       0.113000
     49 H14          2.5960    29.1150    -3.8180 ha         1 WUK       0.114000
     50 H15          3.6350    31.2970    -3.8130 ha         1 WUK       0.113000
     51 H16          5.0960    32.9940    -2.7440 ha         1 WUK       0.114000
     52 H17          6.2120    32.4890    -0.5770 ha         1 WUK       0.113000
     53 H18          4.6300    25.7880     1.4410 hn         1 WUK       0.315500
     54 H19          5.8890    30.3250     0.5180 ha         1 WUK       0.112000
     55 H20          4.2800    24.0640     0.5860 ha         1 WUK       0.116000
     56 H21          6.3570    20.3310     0.9180 ha         1 WUK       0.117000
     57 H22          9.2420    24.6190    -0.3000 hc         1 WUK       0.075200
     58 H23          8.9990    25.0700     1.3810 hc         1 WUK       0.075200
     59 H24         10.0760    22.9140     2.1000 hc         1 WUK       0.065700
     60 H25         10.4450    22.5860     0.3700 hc         1 WUK       0.065700
     61 H26         11.5010    24.0850     3.2670 hn         1 WUK       0.335500
     62 H27         13.1970    26.1530     2.9690 hn         1 WUK       0.341500
     63 H28         15.6610    26.3950     0.8170 hc         1 WUK       0.091700
     64 H29         16.7200    24.9490     0.9940 hc         1 WUK       0.091700
@<TRIPOS>BOND
     1     1     3 1   
     2     1    33 1   
     3     1    36 1   
     4     1    37 1   
     5     2    22 1   
     6     2    38 1   
     7     2    39 1   
     8     2    40 1   
     9     3    31 1   
    10     3    32 2   
    11     4    28 1   
    12     4    29 2   
    13     4    30 1   
    14     5     6 ar  
    15     5     8 ar  
    16     5    27 1   
    17     6    26 ar  
    18     6    41 1   
    19     7    25 ar  
    20     7    26 ar  
    21     7    42 1   
    22     8    10 1   
    23     8    25 ar  
    24     9    11 1   
    25     9    19 1   
    26     9    21 1   
    27     9    43 1   
    28    10    21 1   
    29    10    23 2   
    30    11    44 1   
    31    11    45 1   
    32    11    46 1   
    33    12    13 ar  
    34    12    19 ar  
    35    12    47 1   
    36    13    14 ar  
    37    13    48 1   
    38    14    15 ar  
    39    14    49 1   
    40    15    16 ar  
    41    15    20 ar  
    42    16    17 ar  
    43    16    50 1   
    44    17    18 ar  
    45    17    51 1   
    46    18    24 ar  
    47    18    52 1   
    48    19    20 ar  
    49    20    24 ar  
    50    21    53 1   
    51    22    34 1   
    52    24    54 1   
    53    25    55 1   
    54    26    56 1   
    55    27    28 1   
    56    27    57 1   
    57    27    58 1   
    58    28    59 1   
    59    28    60 1   
    60    30    31 1   
    61    30    61 1   
    62    31    62 1   
    63    33    34 1   
    64    33    63 1   
    65    33    64 1   
    66    34    35 2   
@<TRIPOS>SUBSTRUCTURE
     1 WUK         1 TEMP              0 ****  ****    0 ROOT
