@<TRIPOS>MOLECULE
WUK
   64    66     1     0     0
SMALL
abcg2


@<TRIPOS>ATOM
      1 C1          15.2480    25.9130     2.9050 c3         1 WUK      -0.143400
      2 C4          19.9480    26.8410     1.9470 c3         1 WUK       0.152900
      3 C8          14.1250    24.9220     2.6810 c          1 WUK       0.602100
      4 C9          11.3970    24.3090     1.1190 c          1 WUK       0.603100
      5 C12          7.6900    23.4380     0.3950 ca         1 WUK      -0.029300
      6 C13          7.6150    22.0620     0.6090 ca         1 WUK      -0.119000
      7 C15          5.2200    22.0820     0.3470 ca         1 WUK      -0.117000
      8 C17          6.4900    24.1310     0.1640 ca         1 WUK      -0.145600
      9 C19          5.6440    27.7980     0.6200 c3         1 WUK       0.159000
     10 C18          6.4980    25.6070    -0.1140 c          1 WUK       0.603700
     11 C20          5.4010    28.4070     2.0020 c3         1 WUK      -0.103100
     12 C22          3.4830    27.3220    -0.5790 ca         1 WUK      -0.098000
     13 C23          2.4250    27.6640    -1.4470 ca         1 WUK      -0.107000
     14 C24          2.4290    28.8680    -2.0970 ca         1 WUK      -0.095000
     15 C25          3.4930    29.7820    -1.9030 ca         1 WUK      -0.037000
     16 C26          3.5120    31.0330    -2.5680 ca         1 WUK      -0.097000
     17 C27          4.5410    31.9180    -2.3770 ca         1 WUK      -0.107000
     18 C28          5.6020    31.5850    -1.5100 ca         1 WUK      -0.105000
     19 C21          4.5390    28.1730    -0.3580 ca         1 WUK      -0.080300
     20 C30          4.5670    29.4380    -1.0220 ca         1 WUK      -0.019000
     21 N3           5.8010    26.3570     0.7600 ns         1 WUK      -0.507900
     22 O2          18.7400    26.0910     1.7070 os         1 WUK      -0.447100
     23 O5           7.0930    26.0850    -1.0820 o          1 WUK      -0.586100
     24 C29          5.6140    30.3810    -0.8510 ca         1 WUK      -0.102000
     25 C16          5.2710    23.4570     0.1480 ca         1 WUK      -0.087000
     26 C14          6.3980    21.3860     0.5790 ca         1 WUK      -0.090000
     27 C11          9.0050    24.1850     0.4240 c3         1 WUK      -0.033100
     28 C10         10.1590    23.4430     1.1050 c3         1 WUK      -0.152400
     29 O4          11.9980    24.6290     0.1040 o          1 WUK      -0.571100
     30 N2          11.7680    24.7380     2.3590 ns         1 WUK      -0.375500
     31 N1          12.8970    25.4960     2.5490 ns         1 WUK      -0.376500
     32 O3          14.2910    23.7120     2.6620 o          1 WUK      -0.581100
     33 C2          16.5030    25.5190     2.1410 c3         1 WUK      -0.131400
     34 C3          17.6870    26.3880     2.4800 c          1 WUK       0.588100
     35 O1          17.7120    27.2410     3.3400 o          1 WUK      -0.492000
     36 H1          15.4530    25.9160     3.9790 hc         1 WUK       0.073700
     37 H2          14.9320    26.9220     2.6390 hc         1 WUK       0.073700
     38 H3          20.6740    26.4570     1.2370 h1         1 WUK       0.050700
     39 H4          19.7720    27.9020     1.7760 h1         1 WUK       0.050700
     40 H5          20.2930    26.6850     2.9680 h1         1 WUK       0.050700
     41 H6           8.5170    21.4990     0.8070 ha         1 WUK       0.116000
     42 H7           4.2690    21.5650     0.3250 ha         1 WUK       0.118000
     43 H8           6.5920    28.1660     0.2290 h1         1 WUK       0.081700
     44 H9           6.2410    28.1930     2.6650 hc         1 WUK       0.045700
     45 H10          5.2800    29.4860     1.9260 hc         1 WUK       0.045700
     46 H11          4.4900    27.9930     2.4410 hc         1 WUK       0.045700
     47 H12          3.4600    26.3620    -0.0810 ha         1 WUK       0.105000
     48 H13          1.6120    26.9640    -1.5940 ha         1 WUK       0.113000
     49 H14          1.6230    29.1420    -2.7680 ha         1 WUK       0.114000
     50 H15          2.6920    31.2760    -3.2330 ha         1 WUK       0.113000
     51 H16          4.5430    32.8720    -2.8900 ha         1 WUK       0.114000
     52 H17          6.4140    32.2860    -1.3630 ha         1 WUK       0.113000
     53 H18          5.3410    25.8950     1.5290 hn         1 WUK       0.315500
     54 H19          6.4400    30.1570    -0.1920 ha         1 WUK       0.112000
     55 H20          4.3580    24.0110    -0.0320 ha         1 WUK       0.116000
     56 H21          6.3770    20.3160     0.7430 ha         1 WUK       0.117000
     57 H22          9.2990    24.4350    -0.5970 hc         1 WUK       0.075200
     58 H23          8.8540    25.1400     0.9330 hc         1 WUK       0.075200
     59 H24          9.8780    23.1490     2.1180 hc         1 WUK       0.065700
     60 H25         10.4160    22.5380     0.5530 hc         1 WUK       0.065700
     61 H26         11.3090    24.3870     3.1860 hn         1 WUK       0.335500
     62 H27         12.7930    26.4980     2.4900 hn         1 WUK       0.341500
     63 H28         16.3420    25.5680     1.0620 hc         1 WUK       0.091700
     64 H29         16.7780    24.4850     2.3620 hc         1 WUK       0.091700
@<TRIPOS>BOND
     1     1     3 1   
     2     1    33 1   
     3     1    36 1   
     4     1    37 1   
     5     2    22 1   
     6     2    38 1   
     7     2    39 1   
     8     2    40 1   
     9     3    31 1   
    10     3    32 2   
    11     4    28 1   
    12     4    29 2   
    13     4    30 1   
    14     5     6 ar  
    15     5     8 ar  
    16     5    27 1   
    17     6    26 ar  
    18     6    41 1   
    19     7    25 ar  
    20     7    26 ar  
    21     7    42 1   
    22     8    10 1   
    23     8    25 ar  
    24     9    11 1   
    25     9    19 1   
    26     9    21 1   
    27     9    43 1   
    28    10    21 1   
    29    10    23 2   
    30    11    44 1   
    31    11    45 1   
    32    11    46 1   
    33    12    13 ar  
    34    12    19 ar  
    35    12    47 1   
    36    13    14 ar  
    37    13    48 1   
    38    14    15 ar  
    39    14    49 1   
    40    15    16 ar  
    41    15    20 ar  
    42    16    17 ar  
    43    16    50 1   
    44    17    18 ar  
    45    17    51 1   
    46    18    24 ar  
    47    18    52 1   
    48    19    20 ar  
    49    20    24 ar  
    50    21    53 1   
    51    22    34 1   
    52    24    54 1   
    53    25    55 1   
    54    26    56 1   
    55    27    28 1   
    56    27    57 1   
    57    27    58 1   
    58    28    59 1   
    59    28    60 1   
    60    30    31 1   
    61    30    61 1   
    62    31    62 1   
    63    33    34 1   
    64    33    63 1   
    65    33    64 1   
    66    34    35 2   
@<TRIPOS>SUBSTRUCTURE
     1 WUK         1 TEMP              0 ****  ****    0 ROOT
