@<TRIPOS>MOLECULE
WUL
   36    39     1     0     0
SMALL
No Charge or Current Charge


@<TRIPOS>ATOM
      1 C14         -5.5160     2.5160    -0.4310 c5         1 WUL       0.167300
      2 N3          -3.7560     0.9620     0.1700 n3         1 WUL      -0.713600
      3 O3          -5.4610     3.9330    -0.2360 oh         1 WUL      -0.637000
      4 C13         -4.6440     2.0720    -1.6400 c5         1 WUL      -0.133400
      5 N1          -0.7640    -0.4440     0.8550 nc         1 WUL      -0.556300
      6 C12         -4.1980     0.6580    -1.2070 c5         1 WUL       0.181800
      7 N2          -2.1910    -1.9090    -0.4320 ns         1 WUL      -0.429400
      8 C5          -3.2280    -0.1740     0.9850 c3         1 WUL       0.152500
      9 C3          -1.9730    -0.8640     0.4510 cd         1 WUL       0.482900
     10 C2           0.2720    -1.1500     0.2950 cc         1 WUL       0.164400
     11 C7           1.6970    -1.0040     0.4690 ca         1 WUL      -0.115800
     12 C11          2.4550    -0.1190     1.2460 ca         1 WUL      -0.001000
     13 C10          3.8610    -0.2460     1.1890 ca         1 WUL      -0.054900
     14 C9           4.4720    -1.2340     0.3740 ca         1 WUL      -0.053000
     15 C8           3.6810    -2.1140    -0.3990 ca         1 WUL      -0.113000
     16 O2           1.3310    -2.6940    -0.9740 os         1 WUL      -0.122200
     17 C6           2.2930    -1.9670    -0.3240 ca         1 WUL       0.093100
     18 C1           0.1140    -2.1860    -0.5880 cd         1 WUL      -0.118100
     19 C4          -1.2050    -2.6480    -1.0230 c          1 WUL       0.605200
     20 C15         -4.9080     1.6960     0.7650 c5         1 WUL       0.176800
     21 H3          -5.7620     4.3440    -1.0760 ho         1 WUL       0.440000
     22 H14         -6.5580     2.2010    -0.5850 h1         1 WUL       0.040700
     23 H151        -4.5880     2.3430     1.5930 h1         1 WUL       0.046200
     24 H152        -5.6600     0.9980     1.1600 h1         1 WUL       0.046200
     25 H131        -5.2040     2.0630    -2.5810 hc         1 WUL       0.051200
     26 H132        -3.7750     2.7260    -1.7800 hc         1 WUL       0.051200
     27 H121        -3.3850     0.2750    -1.8400 h1         1 WUL       0.049200
     28 H122        -5.0300    -0.0610    -1.2270 h1         1 WUL       0.049200
     29 H51C        -2.9960     0.1900     1.9950 h1         1 WUL       0.045700
     30 H52C        -4.0100    -0.9350     1.1080 h1         1 WUL       0.045700
     31 H2          -3.1350    -2.1660    -0.6790 hn         1 WUL       0.328500
     32 H11          1.9770     0.6350     1.8670 ha         1 WUL       0.151000
     33 H9           5.5560    -1.3160     0.3440 ha         1 WUL       0.133000
     34 H8           4.1320    -2.8770    -1.0290 ha         1 WUL       0.140000
     35 Br1          4.9560     0.9320     2.2250 br         1 WUL      -0.088100
     36 O1          -1.4270    -3.5620    -1.8030 o          1 WUL      -0.506000
@<TRIPOS>BOND
     1     1     3 1   
     2     1     4 1   
     3     1    20 1   
     4     1    22 1   
     5     2     6 1   
     6     2     8 1   
     7     2    20 1   
     8     3    21 1   
     9     4     6 1   
    10     4    25 1   
    11     4    26 1   
    12     5     9 2   
    13     5    10 1   
    14     6    27 1   
    15     6    28 1   
    16     7     9 1   
    17     7    19 1   
    18     7    31 1   
    19     8     9 1   
    20     8    29 1   
    21     8    30 1   
    22    10    11 1   
    23    10    18 2   
    24    11    12 ar  
    25    11    17 ar  
    26    12    13 ar  
    27    12    32 1   
    28    13    14 ar  
    29    13    35 1   
    30    14    15 ar  
    31    14    33 1   
    32    15    17 ar  
    33    15    34 1   
    34    16    17 1   
    35    16    18 1   
    36    18    19 1   
    37    19    36 2   
    38    20    23 1   
    39    20    24 1   
@<TRIPOS>SUBSTRUCTURE
     1 WUL         1 TEMP              0 ****  ****    0 ROOT
