@<TRIPOS>MOLECULE
WUL
   36    39     1     0     0
SMALL
abcg2


@<TRIPOS>ATOM
      1 C14         -4.8260     2.7720    -0.0100 c5         1 WUL       0.167300
      2 N3          -3.7020     0.7390     0.1610 n3         1 WUL      -0.713600
      3 O3          -3.9630     3.5230     0.8170 oh         1 WUL      -0.637000
      4 C13         -4.2220     2.4770    -1.3820 c5         1 WUL      -0.133400
      5 N1          -1.2740    -0.5930     0.2600 nc         1 WUL      -0.556300
      6 C12         -3.3200     1.2580    -1.1540 c5         1 WUL       0.181800
      7 N2          -2.3410    -2.6590     0.0600 ns         1 WUL      -0.429400
      8 C5          -3.7150    -0.6810     0.2890 c3         1 WUL       0.152500
      9 C3          -2.3490    -1.3040     0.1980 cd         1 WUL       0.482900
     10 C2          -0.1200    -1.3020     0.1710 cc         1 WUL       0.164400
     11 C7           1.2440    -0.8480     0.1760 ca         1 WUL      -0.115800
     12 C11          1.8610     0.3970     0.2640 ca         1 WUL      -0.001000
     13 C10          3.2410     0.4200     0.2210 ca         1 WUL      -0.054900
     14 C9           4.0010    -0.7520     0.0960 ca         1 WUL      -0.053000
     15 C8           3.3910    -1.9900     0.0080 ca         1 WUL      -0.113000
     16 O2           1.2260    -3.1110    -0.0290 os         1 WUL      -0.122200
     17 C6           2.0090    -2.0100     0.0500 ca         1 WUL       0.093100
     18 C1          -0.0470    -2.6600     0.0440 cd         1 WUL      -0.118100
     19 C4          -1.2160    -3.4860    -0.0220 c          1 WUL       0.605200
     20 C15         -4.9440     1.3750     0.5670 c5         1 WUL       0.176800
     21 H3          -3.8120     4.3740     0.3950 ho         1 WUL       0.440000
     22 H14         -5.8080     3.2520    -0.0970 h1         1 WUL       0.040700
     23 H151        -5.0540     1.3700     1.6550 h1         1 WUL       0.046200
     24 H152        -5.8370     0.8900     0.1410 h1         1 WUL       0.046200
     25 H131        -5.0260     2.2320    -2.0790 hc         1 WUL       0.051200
     26 H132        -3.6880     3.3310    -1.8020 hc         1 WUL       0.051200
     27 H121        -2.2600     1.5160    -1.1640 h1         1 WUL       0.049200
     28 H122        -3.4730     0.5130    -1.9460 h1         1 WUL       0.049200
     29 H51C        -4.1280    -0.9490     1.2690 h1         1 WUL       0.045700
     30 H52C        -4.3690    -1.1750    -0.4550 h1         1 WUL       0.045700
     31 H2          -3.2290    -3.1400     0.0030 hn         1 WUL       0.328500
     32 H11          1.2730     1.2990     0.3620 ha         1 WUL       0.151000
     33 H9           5.0800    -0.6980     0.0650 ha         1 WUL       0.133000
     34 H8           3.9770    -2.8930    -0.0920 ha         1 WUL       0.140000
     35 BR1          4.1400     2.0730     0.3300 br         1 WUL      -0.088100
     36 O1          -1.2940    -4.6870    -0.1360 o          1 WUL      -0.506000
@<TRIPOS>BOND
     1     1     3 1   
     2     1     4 1   
     3     1    20 1   
     4     1    22 1   
     5     2     6 1   
     6     2     8 1   
     7     2    20 1   
     8     3    21 1   
     9     4     6 1   
    10     4    25 1   
    11     4    26 1   
    12     5     9 2   
    13     5    10 1   
    14     6    27 1   
    15     6    28 1   
    16     7     9 1   
    17     7    19 1   
    18     7    31 1   
    19     8     9 1   
    20     8    29 1   
    21     8    30 1   
    22    10    11 1   
    23    10    18 2   
    24    11    12 ar  
    25    11    17 ar  
    26    12    13 ar  
    27    12    32 1   
    28    13    14 ar  
    29    13    35 1   
    30    14    15 ar  
    31    14    33 1   
    32    15    17 ar  
    33    15    34 1   
    34    16    17 1   
    35    16    18 1   
    36    18    19 1   
    37    19    36 2   
    38    20    23 1   
    39    20    24 1   
@<TRIPOS>SUBSTRUCTURE
     1 WUL         1 TEMP              0 ****  ****    0 ROOT
