@<TRIPOS>MOLECULE
WUM
   21    21     1     0     0
SMALL
No Charge or Current Charge


@<TRIPOS>ATOM
      1 C01          6.1910   -79.6500    19.4820 c3         1 WUM       0.159600
      2 N02          5.7450   -79.8170    20.8840 n3         1 WUM      -0.723600
      3 C03          4.4370   -80.5030    20.9900 c3         1 WUM       0.159600
      4 C04          5.8190   -78.5580    21.6910 c3         1 WUM       0.144500
      5 C05          4.8850   -77.4290    21.2660 cc         1 WUM       0.290300
      6 C06          5.1540   -76.5140    20.2710 cd         1 WUM      -0.268000
      7 S07          3.8310   -75.3750    20.0840 ss         1 WUM      -0.118400
      8 C08          3.0510   -76.2460    21.3910 cd         1 WUM       0.694300
      9 N09          1.8480   -75.9580    21.8960 nv         1 WUM      -1.038900
     10 N10          3.6760   -77.2660    21.9090 nc         1 WUM      -0.725000
     11 H1           7.1890   -79.1920    19.4430 h1         1 WUM       0.030700
     12 H2           6.2470   -80.6230    18.9750 h1         1 WUM       0.030700
     13 H3           5.4960   -79.0120    18.9200 h1         1 WUM       0.030700
     14 H5           4.1700   -80.6710    22.0420 h1         1 WUM       0.030700
     15 H6           3.6400   -79.9080    20.5240 h1         1 WUM       0.030700
     16 H7           4.4700   -81.4800    20.4910 h1         1 WUM       0.030700
     17 H8           5.6140   -78.7870    22.7450 h1         1 WUM       0.064200
     18 H9           6.8450   -78.1650    21.6630 h1         1 WUM       0.064200
     19 H10          6.0370   -76.4520    19.6470 h4         1 WUM       0.160000
     20 H11          1.2230   -75.4160    21.3110 hn         1 WUM       0.476000
     21 H12          1.4280   -76.6890    22.4560 hn         1 WUM       0.476000
@<TRIPOS>BOND
     1     1     2 1   
     2     1    11 1   
     3     1    12 1   
     4     1    13 1   
     5     2     3 1   
     6     2     4 1   
     7     3    14 1   
     8     3    15 1   
     9     3    16 1   
    10     4     5 1   
    11     4    17 1   
    12     4    18 1   
    13     5     6 2   
    14     5    10 1   
    15     6     7 1   
    16     6    19 1   
    17     7     8 1   
    18     8     9 1   
    19     8    10 2   
    20     9    20 1   
    21     9    21 1   
@<TRIPOS>SUBSTRUCTURE
     1 WUM         1 TEMP              0 ****  ****    0 ROOT
