@<TRIPOS>MOLECULE
WUM
   21    21     1     0     0
SMALL
bcc


@<TRIPOS>ATOM
      1 C01          6.0290   -79.6380    19.4610 c3         1 WUM       0.159600
      2 N02          5.7240   -79.7870    20.8640 n3         1 WUM      -0.723600
      3 C03          4.4560   -80.4460    21.0830 c3         1 WUM       0.159600
      4 C04          5.9040   -78.5630    21.6230 c3         1 WUM       0.144500
      5 C05          4.9790   -77.4280    21.2780 cc         1 WUM       0.355600
      6 C06          5.2890   -76.4020    20.4510 cd         1 WUM      -0.206400
      7 S07          3.9320   -75.3400    20.2890 ss         1 WUM      -0.263300
      8 C08          3.0400   -76.3790    21.3690 cd         1 WUM       0.694300
      9 N09          1.7810   -76.0630    21.7570 nv         1 WUM      -0.928500
     10 N10          3.7060   -77.4070    21.7960 nc         1 WUM      -0.725000
     11 H1           7.0300   -79.2190    19.3370 h1         1 WUM       0.030700
     12 H2           6.0210   -80.6180    18.9780 h1         1 WUM       0.030700
     13 H3           5.3270   -78.9920    18.9140 h1         1 WUM       0.030700
     14 H5           4.2680   -80.5460    22.1530 h1         1 WUM       0.030700
     15 H6           3.5940   -79.9260    20.6420 h1         1 WUM       0.030700
     16 H7           4.4900   -81.4500    20.6550 h1         1 WUM       0.030700
     17 H8           5.7880   -78.7990    22.6850 h1         1 WUM       0.064200
     18 H9           6.9360   -78.2300    21.4800 h1         1 WUM       0.064200
     19 H10          6.2150   -76.2120    19.9320 h4         1 WUM       0.178000
     20 H11          1.2390   -75.4500    21.1720 hn         1 WUM       0.420800
     21 H12          1.2480   -76.8160    22.1640 hn         1 WUM       0.420800
@<TRIPOS>BOND
     1     1     2 1   
     2     1    11 1   
     3     1    12 1   
     4     1    13 1   
     5     2     3 1   
     6     2     4 1   
     7     3    14 1   
     8     3    15 1   
     9     3    16 1   
    10     4     5 1   
    11     4    17 1   
    12     4    18 1   
    13     5     6 2   
    14     5    10 1   
    15     6     7 1   
    16     6    19 1   
    17     7     8 1   
    18     8     9 1   
    19     8    10 2   
    20     9    20 1   
    21     9    21 1   
@<TRIPOS>SUBSTRUCTURE
     1 WUM         1 TEMP              0 ****  ****    0 ROOT
