@<TRIPOS>MOLECULE
WUN
   38    39     1     0     0
SMALL
bcc


@<TRIPOS>ATOM
      1 C1          -4.3650    -0.2040    -0.2910 c6         1 WUN       0.341900
      2 O1          -4.3280    -0.1850    -1.6800 oh         1 WUN      -0.594800
      3 C2          -3.8880     1.1430     0.2450 c6         1 WUN       0.114500
      4 N2          -4.6590     2.2320    -0.3280 n8         1 WUN      -0.869800
      5 C3          -2.4010     1.3280    -0.0580 c6         1 WUN       0.133100
      6 O3          -1.9070     2.5130     0.5310 oh         1 WUN      -0.609800
      7 C4          -1.6130     0.1480     0.4980 c6         1 WUN       0.119100
      8 O4          -0.2610     0.2080     0.0990 os         1 WUN      -0.408600
      9 C5          -2.2000    -1.1710    -0.0180 c6         1 WUN       0.142100
     10 O5          -3.5880    -1.2370     0.2560 os         1 WUN      -0.425600
     11 C6          -1.5550    -2.3660     0.6530 c3         1 WUN       0.146400
     12 O6          -2.0730    -3.5440     0.0830 oh         1 WUN      -0.585800
     13 CAN          4.2360     1.2510    -0.0230 ca         1 WUN      -0.125000
     14 CAO          3.7710    -1.1180    -0.0140 ca         1 WUN      -0.125000
     15 CAP          2.9300     1.4940     0.3850 ca         1 WUN      -0.101000
     16 CAQ          2.4740    -0.8550     0.3960 ca         1 WUN      -0.101000
     17 CAU          0.6350     0.7290     1.0590 c3         1 WUN       0.189700
     18 CBD          4.6420    -0.0580    -0.2200 ca         1 WUN       0.033400
     19 CBE          2.0380     0.4520     0.6050 ca         1 WUN      -0.086300
     20 H1          -5.3800    -0.4060     0.0730 h2         1 WUN       0.059700
     21 H2          -3.9960     1.0790     1.3400 h1         1 WUN       0.037700
     22 HN2         -5.6460     2.0740    -0.1630 hn         1 WUN       0.341800
     23 HN2A        -4.4450     3.0850     0.1750 hn         1 WUN       0.341800
     24 H3          -2.2600     1.3580    -1.1460 h1         1 WUN       0.077700
     25 HO3         -2.0290     3.2380    -0.0870 ho         1 WUN       0.416000
     26 H4          -1.6920     0.1590     1.5970 h1         1 WUN       0.052700
     27 H5          -2.0160    -1.2360    -1.1000 h1         1 WUN       0.075700
     28 H6          -0.4710    -2.2950     0.5100 h1         1 WUN       0.029200
     29 H6A         -1.7410    -2.3170     1.7350 h1         1 WUN       0.029200
     30 HO6         -1.5470    -4.2830     0.4010 ho         1 WUN       0.403000
     31 HAN          4.9190     2.0720    -0.1890 ha         1 WUN       0.147500
     32 HAO          4.0990    -2.1370    -0.1690 ha         1 WUN       0.147500
     33 HAP          2.6090     2.5180     0.5330 ha         1 WUN       0.136000
     34 HAQ          1.8010    -1.6870     0.5640 ha         1 WUN       0.136000
     35 HAU          0.4940     1.8040     1.1980 h1         1 WUN       0.039200
     36 HAUA         0.4620     0.2550     2.0350 h1         1 WUN       0.039200
     37 H7          -4.7630    -0.9760    -2.0140 ho         1 WUN       0.417000
     38 CLA          6.2680    -0.3810    -0.7290 cl         1 WUN      -0.113400
@<TRIPOS>BOND
     1     1     2 1   
     2     1     3 1   
     3     1    10 1   
     4     1    20 1   
     5     2    37 1   
     6     3     4 1   
     7     3     5 1   
     8     3    21 1   
     9     4    22 1   
    10     4    23 1   
    11     5     6 1   
    12     5     7 1   
    13     5    24 1   
    14     6    25 1   
    15     7     8 1   
    16     7     9 1   
    17     7    26 1   
    18     8    17 1   
    19     9    10 1   
    20     9    11 1   
    21     9    27 1   
    22    11    12 1   
    23    11    28 1   
    24    11    29 1   
    25    12    30 1   
    26    13    15 ar  
    27    13    18 ar  
    28    13    31 1   
    29    14    16 ar  
    30    14    18 ar  
    31    14    32 1   
    32    15    19 ar  
    33    15    33 1   
    34    16    19 ar  
    35    16    34 1   
    36    17    19 1   
    37    17    35 1   
    38    17    36 1   
    39    18    38 1   
@<TRIPOS>SUBSTRUCTURE
     1 WUN         1 TEMP              0 ****  ****    0 ROOT
