@<TRIPOS>MOLECULE
WUN
   38    39     1     0     0
SMALL
No Charge or Current Charge


@<TRIPOS>ATOM
      1 C1          -4.4680    -0.0590    -0.1990 c6         1 WUN       0.388300
      2 O1          -4.4840     0.1060    -1.6150 oh         1 WUN      -0.657000
      3 C2          -3.8540     1.1880     0.5360 c6         1 WUN       0.114500
      4 N2          -4.5520     2.4990     0.2960 n8         1 WUN      -0.980200
      5 C3          -2.3510     1.3360     0.1770 c6         1 WUN       0.156300
      6 O3          -1.8930     2.5130     0.8610 oh         1 WUN      -0.732000
      7 C4          -1.5720     0.0160     0.5070 c6         1 WUN       0.142300
      8 O4          -0.1650     0.0570     0.1420 os         1 WUN      -0.455000
      9 C5          -2.2720    -1.1630    -0.2410 c6         1 WUN       0.165300
     10 O5          -3.6890    -1.2320     0.1010 os         1 WUN      -0.472000
     11 C6          -1.6180    -2.5440     0.1000 c3         1 WUN       0.169600
     12 O6          -2.2680    -3.6600    -0.5430 oh         1 WUN      -0.708000
     13 CAN          4.1720     0.8130    -0.7690 ca         1 WUN      -0.107000
     14 CAO          4.1130    -0.8260     1.0280 ca         1 WUN      -0.107000
     15 CAP          2.8450     1.1780    -0.4820 ca         1 WUN      -0.083000
     16 CAQ          2.7860    -0.4620     1.3170 ca         1 WUN      -0.083000
     17 CAU          0.7080     0.9350     0.8770 c3         1 WUN       0.212900
     18 CBD          4.8050    -0.1870    -0.0140 ca         1 WUN       0.125000
     19 CBE          2.1460     0.5430     0.5650 ca         1 WUN      -0.086300
     20 H1          -5.4960    -0.2130     0.1630 h2         1 WUN       0.059700
     21 H2          -3.9220     0.9980     1.6180 h1         1 WUN       0.037700
     22 HN2         -4.7470     2.5710    -0.7120 hn         1 WUN       0.397000
     23 HN2A        -5.4950     2.4560     0.7050 hn         1 WUN       0.397000
     24 H3          -2.2770     1.4970    -0.9100 h1         1 WUN       0.077700
     25 HO3         -2.7340     3.0420     0.9010 ho         1 WUN       0.515000
     26 H4          -1.6410    -0.1760     1.5880 h1         1 WUN       0.052700
     27 H5          -2.1680    -1.0070    -1.3250 h1         1 WUN       0.075700
     28 H6          -0.5610    -2.5090    -0.1980 h1         1 WUN       0.029200
     29 H6A         -1.6430    -2.6730     1.1910 h1         1 WUN       0.029200
     30 HO6         -1.8280    -4.4770    -0.2130 ho         1 WUN       0.502000
     31 HAN          4.7100     1.3050    -1.5770 ha         1 WUN       0.129500
     32 HAO          4.6050    -1.6010     1.6100 ha         1 WUN       0.129500
     33 HAP          2.3590     1.9520    -1.0720 ha         1 WUN       0.118000
     34 HAQ          2.2540    -0.9620     2.1240 ha         1 WUN       0.118000
     35 HAU          0.5520     1.9810     0.5880 h1         1 WUN       0.039200
     36 HAUA         0.5330     0.8460     1.9570 h1         1 WUN       0.039200
     37 H7          -4.7990    -0.7550    -1.9620 ho         1 WUN       0.456000
     38 ClA          6.4650    -0.6430    -0.3750 cl         1 WUN      -0.205000
@<TRIPOS>BOND
     1     1     2 1   
     2     1     3 1   
     3     1    10 1   
     4     1    20 1   
     5     2    37 1   
     6     3     4 1   
     7     3     5 1   
     8     3    21 1   
     9     4    22 1   
    10     4    23 1   
    11     5     6 1   
    12     5     7 1   
    13     5    24 1   
    14     6    25 1   
    15     7     8 1   
    16     7     9 1   
    17     7    26 1   
    18     8    17 1   
    19     9    10 1   
    20     9    11 1   
    21     9    27 1   
    22    11    12 1   
    23    11    28 1   
    24    11    29 1   
    25    12    30 1   
    26    13    15 ar  
    27    13    18 ar  
    28    13    31 1   
    29    14    16 ar  
    30    14    18 ar  
    31    14    32 1   
    32    15    19 ar  
    33    15    33 1   
    34    16    19 ar  
    35    16    34 1   
    36    17    19 1   
    37    17    35 1   
    38    17    36 1   
    39    18    38 1   
@<TRIPOS>SUBSTRUCTURE
     1 WUN         1 TEMP              0 ****  ****    0 ROOT
