@<TRIPOS>MOLECULE
WUQ
   47    50     1     0     0
SMALL
abcg2


@<TRIPOS>ATOM
      1 C1          23.5510    16.8590    31.2980 cy         1 WUQ      -0.080700
      2 C2          23.2290    15.6350    32.1840 cy         1 WUQ      -0.069400
      3 C3          22.8320    16.6050    33.3420 cy         1 WUQ      -0.061000
      4 C7          19.0320    16.7430    32.8040 ca         1 WUQ      -0.116000
      5 C8          18.6730    17.7270    33.7100 ca         1 WUQ      -0.100000
      6 C9          19.6500    18.3480    34.4990 ca         1 WUQ      -0.039800
      7 C10         20.9790    17.9540    34.3490 ca         1 WUQ      -0.066000
      8 C11         19.2590    19.3810    35.4800 cc         1 WUQ      -0.143400
      9 C12         18.1270    19.2440    36.2360 cd         1 WUQ      -0.060000
     10 C13         17.7090    20.2330    37.1600 cd         1 WUQ      -0.316200
     11 C14         18.4670    21.3550    37.3030 cc         1 WUQ       0.041600
     12 C15         20.0710    20.5830    35.6280 c          1 WUQ       0.557200
     13 C16         16.4700    20.0270    37.9620 c3         1 WUQ       0.363200
     14 C19         22.0180    14.1040    34.9840 c3         1 WUQ       0.065900
     15 F2          16.1750    21.0820    38.7470 f          1 WUQ      -0.113000
     16 F           15.3850    19.8040    37.1790 f          1 WUQ      -0.113000
     17 F1          16.5600    18.9450    38.7770 f          1 WUQ      -0.113000
     18 N           19.5850    21.4960    36.5630 ns         1 WUQ      -0.360100
     19 O           21.1000    20.8530    35.0080 o          1 WUQ      -0.528000
     20 C6          20.3640    16.3590    32.6680 ca         1 WUQ      -0.102000
     21 C5          21.3520    16.9600    33.4420 ca         1 WUQ      -0.074300
     22 C4          23.6350    17.7120    32.5850 cy         1 WUQ      -0.069400
     23 C           24.7640    16.7970    30.3920 c3         1 WUQ      -0.078100
     24 C17         23.3600    16.2420    34.6900 cc         1 WUQ       0.407800
     25 N3          22.9770    15.1250    35.3830 na         1 WUQ      -0.378000
     26 C18         23.6720    15.1760    36.5510 cc         1 WUQ       0.375400
     27 N2          24.4330    16.2390    36.5900 nd         1 WUQ      -0.362000
     28 N1          24.2330    16.9200    35.4000 nd         1 WUQ      -0.363000
     29 H1          22.6660    17.1400    30.7230 hc         1 WUQ       0.056700
     30 H2          22.4900    14.9190    31.8320 hc         1 WUQ       0.063950
     31 H3          24.1400    15.0950    32.4490 hc         1 WUQ       0.063950
     32 H4          18.2740    16.2730    32.1910 ha         1 WUQ       0.115000
     33 H5          17.6380    18.0320    33.7950 ha         1 WUQ       0.114000
     34 H6          21.7390    18.4250    34.9560 ha         1 WUQ       0.143000
     35 H7          17.5330    18.3450    36.1340 ha         1 WUQ       0.202000
     36 H8          18.2340    22.1590    37.9840 h4         1 WUQ       0.221000
     37 H9          22.0230    13.3190    35.7360 h1         1 WUQ       0.056033
     38 H10         21.0200    14.5330    34.9110 h1         1 WUQ       0.056033
     39 H11         22.3010    13.6820    34.0220 h1         1 WUQ       0.056033
     40 H12         20.1380    22.3370    36.6690 hn         1 WUQ       0.337500
     41 H13         20.6170    15.5890    31.9540 ha         1 WUQ       0.113000
     42 H14         24.6570    17.7720    32.9580 hc         1 WUQ       0.063950
     43 H15         23.1930    18.7070    32.5760 hc         1 WUQ       0.063950
     44 H16         24.9560    17.7660    29.9240 hc         1 WUQ       0.037367
     45 H17         25.6540    16.5120    30.9590 hc         1 WUQ       0.037367
     46 H18         24.6220    16.0620    29.5950 hc         1 WUQ       0.037367
     47 H19         23.5910    14.4190    37.3150 h5         1 WUQ       0.060100
@<TRIPOS>BOND
     1     1     2 1   
     2     1    22 1   
     3     1    23 1   
     4     1    29 1   
     5     2     3 1   
     6     2    30 1   
     7     2    31 1   
     8     3    21 1   
     9     3    22 1   
    10     3    24 1   
    11     4     5 ar  
    12     4    20 ar  
    13     4    32 1   
    14     5     6 ar  
    15     5    33 1   
    16     6     7 ar  
    17     6     8 1   
    18     7    21 ar  
    19     7    34 1   
    20     8     9 2   
    21     8    12 1   
    22     9    10 1   
    23     9    35 1   
    24    10    11 2   
    25    10    13 1   
    26    11    18 1   
    27    11    36 1   
    28    12    18 1   
    29    12    19 2   
    30    13    15 1   
    31    13    16 1   
    32    13    17 1   
    33    14    25 1   
    34    14    37 1   
    35    14    38 1   
    36    14    39 1   
    37    18    40 1   
    38    20    21 ar  
    39    20    41 1   
    40    22    42 1   
    41    22    43 1   
    42    23    44 1   
    43    23    45 1   
    44    23    46 1   
    45    24    25 1   
    46    24    28 2   
    47    25    26 1   
    48    26    27 2   
    49    26    47 1   
    50    27    28 1   
@<TRIPOS>SUBSTRUCTURE
     1 WUQ         1 TEMP              0 ****  ****    0 ROOT
