@<TRIPOS>MOLECULE
WUQ
   47    50     1     0     0
SMALL
No Charge or Current Charge


@<TRIPOS>ATOM
      1 C1          23.4900    17.1520    31.5420 cy         1 WUQ      -0.080700
      2 C2          23.4260    15.7570    32.2410 cy         1 WUQ      -0.069400
      3 C3          22.9070    16.5140    33.5310 cy         1 WUQ      -0.061000
      4 C7          19.0660    16.5010    33.0010 ca         1 WUQ      -0.116000
      5 C8          18.6840    17.6170    33.7610 ca         1 WUQ      -0.100000
      6 C9          19.6540    18.3710    34.4480 ca         1 WUQ      -0.039800
      7 C10         21.0080    17.9970    34.3540 ca         1 WUQ      -0.066000
      8 C11         19.2660    19.5320    35.2530 cc         1 WUQ      -0.143400
      9 C12         18.2930    19.2920    36.2110 cd         1 WUQ      -0.060000
     10 C13         17.8380    20.3700    37.0660 cd         1 WUQ      -0.316200
     11 C14         18.4130    21.6180    36.8840 cc         1 WUQ       0.041600
     12 C15         19.8760    20.8680    35.0690 c          1 WUQ       0.557200
     13 C16         16.7740    20.1070    38.1140 c3         1 WUQ       0.363200
     14 C19         21.9650    13.7100    34.7690 c3         1 WUQ       0.065900
     15 F2          16.4100    21.2260    38.7820 f          1 WUQ      -0.113000
     16 F           15.6510    19.5960    37.5620 f          1 WUQ      -0.113000
     17 F1          17.2020    19.2190    39.0380 f          1 WUQ      -0.113000
     18 N           19.3860    21.8200    35.9200 ns         1 WUQ      -0.360100
     19 O           20.7350    21.1370    34.2430 o          1 WUQ      -0.528000
     20 C6          20.4180    16.1330    32.9130 ca         1 WUQ      -0.102000
     21 C5          21.4080    16.8850    33.5820 ca         1 WUQ      -0.074300
     22 C4          23.8130    17.6890    32.9740 cy         1 WUQ      -0.069400
     23 C           24.5260    17.3660    30.4310 c3         1 WUQ      -0.078100
     24 C17         23.2610    15.9130    34.8720 cc         1 WUQ       0.407800
     25 N3          22.8560    14.7010    35.3930 na         1 WUQ      -0.378000
     26 C18         23.4430    14.6030    36.6310 cc         1 WUQ       0.375400
     27 N2          24.1700    15.6840    36.8540 nd         1 WUQ      -0.362000
     28 N1          24.0570    16.5000    35.7560 nd         1 WUQ      -0.363000
     29 H1          22.5200    17.4920    31.1590 hc         1 WUQ       0.056700
     30 H2          22.7630    15.0210    31.7780 hc         1 WUQ       0.063950
     31 H3          24.4020    15.2730    32.3720 hc         1 WUQ       0.063950
     32 H4          18.3110    15.9180    32.4780 ha         1 WUQ       0.115000
     33 H5          17.6340    17.8960    33.8140 ha         1 WUQ       0.114000
     34 H6          21.7560    18.5730    34.8940 ha         1 WUQ       0.143000
     35 H7          17.8760    18.2940    36.3280 ha         1 WUQ       0.202000
     36 H8          18.1780    22.5190    37.4470 h4         1 WUQ       0.221000
     37 H9          22.0260    12.7580    35.3110 h1         1 WUQ       0.056033
     38 H10         20.9300    14.0730    34.8020 h1         1 WUQ       0.056033
     39 H11         22.2590    13.5450    33.7260 h1         1 WUQ       0.056033
     40 H12         19.7920    22.7410    35.8060 hn         1 WUQ       0.337500
     41 H13         20.6780    15.2570    32.3270 ha         1 WUQ       0.113000
     42 H14         24.8720    17.6220    33.2520 hc         1 WUQ       0.063950
     43 H15         23.4760    18.7100    33.1820 hc         1 WUQ       0.063950
     44 H16         24.5860    18.4250    30.1510 hc         1 WUQ       0.037367
     45 H17         25.5250    17.0450    30.7490 hc         1 WUQ       0.037367
     46 H18         24.2590    16.7960    29.5330 hc         1 WUQ       0.037367
     47 H19         23.3080    13.7560    37.2930 h5         1 WUQ       0.060100
@<TRIPOS>BOND
     1     1     2 1   
     2     1    22 1   
     3     1    23 1   
     4     1    29 1   
     5     2     3 1   
     6     2    30 1   
     7     2    31 1   
     8     3    21 1   
     9     3    22 1   
    10     3    24 1   
    11     4     5 ar  
    12     4    20 ar  
    13     4    32 1   
    14     5     6 ar  
    15     5    33 1   
    16     6     7 ar  
    17     6     8 1   
    18     7    21 ar  
    19     7    34 1   
    20     8     9 2   
    21     8    12 1   
    22     9    10 1   
    23     9    35 1   
    24    10    11 2   
    25    10    13 1   
    26    11    18 1   
    27    11    36 1   
    28    12    18 1   
    29    12    19 2   
    30    13    15 1   
    31    13    16 1   
    32    13    17 1   
    33    14    25 1   
    34    14    37 1   
    35    14    38 1   
    36    14    39 1   
    37    18    40 1   
    38    20    21 ar  
    39    20    41 1   
    40    22    42 1   
    41    22    43 1   
    42    23    44 1   
    43    23    45 1   
    44    23    46 1   
    45    24    25 1   
    46    24    28 2   
    47    25    26 1   
    48    26    27 2   
    49    26    47 1   
    50    27    28 1   
@<TRIPOS>SUBSTRUCTURE
     1 WUQ         1 TEMP              0 ****  ****    0 ROOT
