@<TRIPOS>MOLECULE
WUR
   66    69     1     0     0
SMALL
abcg2


@<TRIPOS>ATOM
      1 N1          -7.4810   -39.9830   -32.8070 n3         1 WUR      -0.748600
      2 N3          -8.7970   -39.5240   -41.5550 nc         1 WUR      -0.568100
      3 C4          -8.5460   -39.0100   -33.0570 c3         1 WUR       0.191800
      4 C5          -9.3040   -39.0640   -34.3930 c3         1 WUR      -0.116400
      5 C6          -8.4980   -38.6970   -35.6410 c3         1 WUR      -0.074400
      6 C7          -9.3610   -38.4590   -36.8820 c3         1 WUR      -0.076400
      7 C8         -10.1450   -39.6920   -37.3250 c3         1 WUR      -0.095400
      8 C10         -9.8480   -37.9400   -40.2850 ca         1 WUR      -0.055200
      9 C15         -8.9330   -35.7990   -41.7880 cp         1 WUR      -0.184500
     10 C17         -7.2620   -33.8240   -44.3400 ca         1 WUR       0.115900
     11 C20         -9.7650   -35.6020   -40.6630 ca         1 WUR      -0.052000
     12 C21        -10.2330   -36.6580   -39.9000 ca         1 WUR      -0.136000
     13 C22         -6.2290   -39.7000   -33.4950 c6         1 WUR       0.180800
     14 C24         -5.3780   -41.9380   -32.8890 c6         1 WUR       0.131300
     15 C1          -6.7220   -42.2370   -32.2500 c6         1 WUR       0.137300
     16 O1          -6.9490   -43.6390   -32.4320 oh         1 WUR      -0.740000
     17 C2          -7.8520   -41.3970   -32.8750 c6         1 WUR       0.184500
     18 N2         -10.1220   -39.1920   -39.7770 na         1 WUR      -0.192600
     19 O2          -9.0950   -41.3760   -30.7980 oh         1 WUR      -0.656000
     20 C3          -9.1730   -41.7100   -32.1860 c3         1 WUR       0.155600
     21 O3          -3.8850   -40.1390   -33.5530 oh         1 WUR      -0.725000
     22 N4          -7.6790   -34.8740   -43.6380 nb         1 WUR      -0.184000
     23 O4          -4.3180   -42.6230   -32.2210 oh         1 WUR      -0.673000
     24 N5          -8.8440   -33.4130   -42.1760 nb         1 WUR      -0.184000
     25 C9         -10.9470   -39.4920   -38.6100 c3         1 WUR       0.082600
     26 C11         -9.0160   -38.1620   -41.4030 ca         1 WUR       0.051400
     27 C12         -9.4640   -40.1010   -40.5780 cd         1 WUR       0.418800
     28 C14         -8.5550   -37.0920   -42.1590 ca         1 WUR       0.005000
     29 C16         -8.4620   -34.6370   -42.5720 cp         1 WUR       0.202500
     30 C18         -7.6080   -32.5220   -44.0070 ca         1 WUR      -0.230000
     31 C19         -8.4180   -32.3740   -42.8910 ca         1 WUR       0.115900
     32 C23         -5.0830   -40.4530   -32.8430 c6         1 WUR       0.174300
     33 H2          -8.0950   -38.0210   -32.9480 h1         1 WUR       0.056200
     34 H3          -9.2760   -39.1060   -32.2500 h1         1 WUR       0.056200
     35 H4         -10.1430   -38.3640   -34.3010 hc         1 WUR       0.037700
     36 H5          -9.7530   -40.0510   -34.5220 hc         1 WUR       0.037700
     37 H6          -7.7770   -39.4870   -35.8650 hc         1 WUR       0.045200
     38 H7          -7.9160   -37.7930   -35.4380 hc         1 WUR       0.045200
     39 H8          -8.7130   -38.1320   -37.7000 hc         1 WUR       0.048200
     40 H9         -10.0590   -37.6370   -36.6910 hc         1 WUR       0.048200
     41 H10        -10.8580   -39.9850   -36.5500 hc         1 WUR       0.048200
     42 H11         -9.4600   -40.5350   -37.4520 hc         1 WUR       0.048200
     43 H12         -8.9950   -42.0790   -41.1390 hc         1 WUR       0.058033
     44 H13         -9.0910   -41.8370   -39.3850 hc         1 WUR       0.058033
     45 H14        -10.5700   -41.9140   -40.3390 hc         1 WUR       0.058033
     46 H16        -10.0390   -34.5920   -40.3970 ha         1 WUR       0.135000
     47 H17        -10.8650   -36.4850   -39.0400 ha         1 WUR       0.118000
     48 H18         -6.0330   -38.6290   -33.4400 h1         1 WUR       0.048700
     49 H19         -6.2480   -39.9770   -34.5590 h1         1 WUR       0.048700
     50 H20         -5.4150   -42.2500   -33.9410 h1         1 WUR       0.052700
     51 H21         -6.6630   -42.0070   -31.1840 h1         1 WUR       0.075700
     52 H22         -7.4490   -43.9760   -31.6800 ho         1 WUR       0.510000
     53 H23         -7.9680   -41.7330   -33.9210 h1         1 WUR       0.037700
     54 H24         -9.9270   -41.6330   -30.3830 ho         1 WUR       0.438000
     55 H25         -9.9930   -41.1690   -32.6620 h1         1 WUR       0.025700
     56 H26         -9.3700   -42.7780   -32.3130 h1         1 WUR       0.025700
     57 H27         -3.1910   -40.7250   -33.2240 ho         1 WUR       0.522000
     58 H28         -4.5460   -43.5620   -32.2120 ho         1 WUR       0.460000
     59 H29        -11.6520   -38.6680   -38.4930 h1         1 WUR       0.058700
     60 H30        -11.5300   -40.3850   -38.8330 h1         1 WUR       0.058700
     61 H31         -7.9190   -37.2510   -43.0180 ha         1 WUR       0.150000
     62 H32         -7.2660   -31.6740   -44.5820 ha         1 WUR       0.134000
     63 H33         -8.7360   -31.3910   -42.5580 h4         1 WUR       0.024100
     64 H34         -4.9890   -40.1430   -31.7950 h1         1 WUR       0.060700
     65 H15         -6.6300   -34.0320   -45.1970 h4         1 WUR       0.024100
     66 C13         -9.5340   -41.5670   -40.3460 c3         1 WUR      -0.110400
@<TRIPOS>BOND
     1     1     3 1   
     2     1    13 1   
     3     1    17 1   
     4     2    26 1   
     5     2    27 2   
     6     3     4 1   
     7     3    33 1   
     8     3    34 1   
     9     4     5 1   
    10     4    35 1   
    11     4    36 1   
    12     5     6 1   
    13     5    37 1   
    14     5    38 1   
    15     6     7 1   
    16     6    39 1   
    17     6    40 1   
    18     7    25 1   
    19     7    41 1   
    20     7    42 1   
    21     8    12 ar  
    22     8    18 1   
    23     8    26 ar  
    24     9    11 ar  
    25     9    28 ar  
    26     9    29 1   
    27    10    22 ar  
    28    10    30 ar  
    29    10    65 1   
    30    11    12 ar  
    31    11    46 1   
    32    12    47 1   
    33    13    32 1   
    34    13    48 1   
    35    13    49 1   
    36    14    15 1   
    37    14    23 1   
    38    14    32 1   
    39    14    50 1   
    40    15    16 1   
    41    15    17 1   
    42    15    51 1   
    43    16    52 1   
    44    17    20 1   
    45    17    53 1   
    46    18    25 1   
    47    18    27 1   
    48    19    20 1   
    49    19    54 1   
    50    20    55 1   
    51    20    56 1   
    52    21    32 1   
    53    21    57 1   
    54    22    29 ar  
    55    23    58 1   
    56    24    29 ar  
    57    24    31 ar  
    58    25    59 1   
    59    25    60 1   
    60    26    28 ar  
    61    27    66 1   
    62    28    61 1   
    63    30    31 ar  
    64    30    62 1   
    65    31    63 1   
    66    32    64 1   
    67    43    66 1   
    68    44    66 1   
    69    45    66 1   
@<TRIPOS>SUBSTRUCTURE
     1 WUR         1 TEMP              0 ****  ****    0 ROOT
