@<TRIPOS>MOLECULE
WUR
   66    69     1     0     0
SMALL
No Charge or Current Charge


@<TRIPOS>ATOM
      1 N1          -7.4890   -39.8570   -32.6690 n3         1 WUR      -0.748600
      2 N3          -8.8030   -39.5750   -41.6610 nc         1 WUR      -0.568100
      3 C4          -8.5830   -38.8840   -32.9730 c3         1 WUR       0.191800
      4 C5          -9.3260   -39.0110   -34.3350 c3         1 WUR      -0.116400
      5 C6          -8.4880   -38.7390   -35.6090 c3         1 WUR      -0.074400
      6 C7          -9.3320   -38.5100   -36.8850 c3         1 WUR      -0.076400
      7 C8         -10.1620   -39.7410   -37.3300 c3         1 WUR      -0.095400
      8 C10         -9.8520   -38.0350   -40.3440 ca         1 WUR      -0.055200
      9 C15         -8.9390   -35.8050   -41.8020 cp         1 WUR      -0.184500
     10 C17         -7.2190   -33.7840   -44.3640 ca         1 WUR       0.115900
     11 C20         -9.7750   -35.6460   -40.6510 ca         1 WUR      -0.052000
     12 C21        -10.2350   -36.7570   -39.9170 ca         1 WUR      -0.136000
     13 C22         -6.1800   -39.5110   -33.3150 c6         1 WUR       0.180800
     14 C24         -5.3560   -41.8820   -33.0490 c6         1 WUR       0.131300
     15 C1          -6.6710   -42.2500   -32.3110 c6         1 WUR       0.137300
     16 O1          -6.9470   -43.6580   -32.5150 oh         1 WUR      -0.740000
     17 C2          -7.8530   -41.3240   -32.7900 c6         1 WUR       0.184500
     18 N2         -10.1510   -39.2630   -39.8140 na         1 WUR      -0.192600
     19 O2          -9.0980   -41.6090   -30.6040 oh         1 WUR      -0.656000
     20 C3          -9.1840   -41.7210   -32.0380 c3         1 WUR       0.155600
     21 O3          -3.7660   -40.0720   -33.4460 oh         1 WUR      -0.725000
     22 N4          -7.6600   -34.8470   -43.6610 nb         1 WUR      -0.184000
     23 O4          -4.2810   -42.7360   -32.6120 oh         1 WUR      -0.673000
     24 N5          -8.8220   -33.3830   -42.1670 nb         1 WUR      -0.184000
     25 C9         -10.9810   -39.5170   -38.6210 c3         1 WUR       0.082600
     26 C11         -9.0540   -38.2290   -41.4350 ca         1 WUR       0.051400
     27 C12         -9.4840   -40.1640   -40.6590 cd         1 WUR       0.418800
     28 C14         -8.5840   -37.1370   -42.1810 ca         1 WUR       0.005000
     29 C16         -8.4470   -34.6140   -42.5850 cp         1 WUR       0.202500
     30 C18         -7.5630   -32.4750   -43.9940 ca         1 WUR      -0.230000
     31 C19         -8.3830   -32.3170   -42.8660 ca         1 WUR       0.115900
     32 C23         -5.0110   -40.3930   -32.7970 c6         1 WUR       0.174300
     33 H2          -8.1920   -37.8600   -32.8960 h1         1 WUR       0.056200
     34 H3          -9.3450   -38.9580   -32.1850 h1         1 WUR       0.056200
     35 H4         -10.1540   -38.2930   -34.3140 hc         1 WUR       0.037700
     36 H5          -9.7890   -40.0010   -34.4120 hc         1 WUR       0.037700
     37 H6          -7.8190   -39.5870   -35.7950 hc         1 WUR       0.045200
     38 H7          -7.8590   -37.8560   -35.4440 hc         1 WUR       0.045200
     39 H8          -8.6490   -38.2270   -37.6950 hc         1 WUR       0.048200
     40 H9         -10.0020   -37.6550   -36.7290 hc         1 WUR       0.048200
     41 H10        -10.8610   -40.0140   -36.5310 hc         1 WUR       0.048200
     42 H11         -9.4930   -40.5990   -37.4700 hc         1 WUR       0.048200
     43 H12         -9.0120   -42.1650   -41.3220 hc         1 WUR       0.058033
     44 H13         -8.9890   -41.9490   -39.5640 hc         1 WUR       0.058033
     45 H14        -10.5350   -42.0290   -40.4300 hc         1 WUR       0.058033
     46 H16        -10.0740   -34.6550   -40.3170 ha         1 WUR       0.135000
     47 H17        -10.8680   -36.6160   -39.0440 ha         1 WUR       0.118000
     48 H18         -5.9310   -38.4580   -33.1190 h1         1 WUR       0.048700
     49 H19         -6.2310   -39.6310   -34.4030 h1         1 WUR       0.048700
     50 H20         -5.5230   -42.0210   -34.1280 h1         1 WUR       0.052700
     51 H21         -6.5120   -42.0540   -31.2390 h1         1 WUR       0.075700
     52 H22         -7.5920   -43.9260   -31.8170 ho         1 WUR       0.510000
     53 H23         -8.0240   -41.5470   -33.8540 h1         1 WUR       0.037700
     54 H24        -10.0050   -41.7370   -30.2500 ho         1 WUR       0.438000
     55 H25        -10.0080   -41.1000   -32.4100 h1         1 WUR       0.025700
     56 H26         -9.4390   -42.7530   -32.3120 h1         1 WUR       0.025700
     57 H27         -3.2230   -40.8910   -33.3350 ho         1 WUR       0.522000
     58 H28         -4.7050   -43.6200   -32.5030 ho         1 WUR       0.460000
     59 H29        -11.6740   -38.6790   -38.4740 h1         1 WUR       0.058700
     60 H30        -11.5910   -40.4090   -38.8120 h1         1 WUR       0.058700
     61 H31         -7.9510   -37.3300   -43.0430 ha         1 WUR       0.150000
     62 H32         -7.2090   -31.6170   -44.5590 ha         1 WUR       0.134000
     63 H33         -8.6930   -31.3330   -42.5180 h4         1 WUR       0.024100
     64 H34         -4.9190   -40.2350   -31.7110 h1         1 WUR       0.060700
     65 H15         -6.5870   -33.9870   -45.2270 h4         1 WUR       0.024100
     66 C13         -9.5060   -41.6580   -40.4850 c3         1 WUR      -0.110400
@<TRIPOS>BOND
     1     1     3 1   
     2     1    13 1   
     3     1    17 1   
     4     2    26 1   
     5     2    27 2   
     6     3     4 1   
     7     3    33 1   
     8     3    34 1   
     9     4     5 1   
    10     4    35 1   
    11     4    36 1   
    12     5     6 1   
    13     5    37 1   
    14     5    38 1   
    15     6     7 1   
    16     6    39 1   
    17     6    40 1   
    18     7    25 1   
    19     7    41 1   
    20     7    42 1   
    21     8    12 ar  
    22     8    18 1   
    23     8    26 ar  
    24     9    11 ar  
    25     9    28 ar  
    26     9    29 1   
    27    10    22 ar  
    28    10    30 ar  
    29    10    65 1   
    30    11    12 ar  
    31    11    46 1   
    32    12    47 1   
    33    13    32 1   
    34    13    48 1   
    35    13    49 1   
    36    14    15 1   
    37    14    23 1   
    38    14    32 1   
    39    14    50 1   
    40    15    16 1   
    41    15    17 1   
    42    15    51 1   
    43    16    52 1   
    44    17    20 1   
    45    17    53 1   
    46    18    25 1   
    47    18    27 1   
    48    19    20 1   
    49    19    54 1   
    50    20    55 1   
    51    20    56 1   
    52    21    32 1   
    53    21    57 1   
    54    22    29 ar  
    55    23    58 1   
    56    24    29 ar  
    57    24    31 ar  
    58    25    59 1   
    59    25    60 1   
    60    26    28 ar  
    61    27    66 1   
    62    28    61 1   
    63    30    31 ar  
    64    30    62 1   
    65    31    63 1   
    66    32    64 1   
    67    43    66 1   
    68    44    66 1   
    69    45    66 1   
@<TRIPOS>SUBSTRUCTURE
     1 WUR         1 TEMP              0 ****  ****    0 ROOT
