@<TRIPOS>MOLECULE
WUS
   24    25     1     0     0
SMALL
No Charge or Current Charge


@<TRIPOS>ATOM
      1 C10         62.2880   -78.5300     8.3570 cc         1 WUS       0.249300
      2 C01         62.9630   -75.6880     6.2660 c3         1 WUS      -0.122400
      3 C02         62.6940   -76.6910     7.3490 cd         1 WUS       0.406800
      4 N03         62.6250   -76.4010     8.6990 na         1 WUS      -0.296500
      5 C04         62.3580   -77.5930     9.3500 cd         1 WUS      -0.209300
      6 C05         62.1940   -77.8740    10.8250 c6         1 WUS       0.012900
      7 C06         61.5800   -79.2840    11.0370 c6         1 WUS      -0.108400
      8 C07         62.2320   -80.3370    10.0980 c6         1 WUS       0.152500
      9 C08         62.0030   -79.9890     8.6010 c6         1 WUS      -0.087700
     10 N09         61.7090   -81.6840    10.3990 n8         1 WUS      -0.987200
     11 N11         62.4900   -77.9810     7.1240 nc         1 WUS      -0.666000
     12 H1          62.9790   -76.1610     5.2770 hc         1 WUS       0.053700
     13 H2          62.1900   -74.9120     6.2550 hc         1 WUS       0.053700
     14 H3          63.9320   -75.2000     6.4210 hc         1 WUS       0.053700
     15 H4          62.7500   -75.4850     9.1130 hn         1 WUS       0.347000
     16 H5          63.1730   -77.8240    11.3220 hc         1 WUS       0.047200
     17 H6          61.5620   -77.1140    11.3040 hc         1 WUS       0.047200
     18 H7          60.4980   -79.2390    10.8450 hc         1 WUS       0.041700
     19 H8          61.6990   -79.5770    12.0890 hc         1 WUS       0.041700
     20 H9          63.3170   -80.3500    10.2920 h1         1 WUS       0.063700
     21 H10         60.9650   -80.2100     8.3180 hc         1 WUS       0.062700
     22 H11         62.6410   -80.6210     7.9700 hc         1 WUS       0.062700
     23 H12         61.8590   -81.8800    11.3960 hn         1 WUS       0.390500
     24 H13         60.6860   -81.6660    10.3120 hn         1 WUS       0.390500
@<TRIPOS>BOND
     1     1     5 2   
     2     1     9 1   
     3     1    11 1   
     4     2     3 1   
     5     2    12 1   
     6     2    13 1   
     7     2    14 1   
     8     3     4 1   
     9     3    11 2   
    10     4     5 1   
    11     4    15 1   
    12     5     6 1   
    13     6     7 1   
    14     6    16 1   
    15     6    17 1   
    16     7     8 1   
    17     7    18 1   
    18     7    19 1   
    19     8     9 1   
    20     8    10 1   
    21     8    20 1   
    22     9    21 1   
    23     9    22 1   
    24    10    23 1   
    25    10    24 1   
@<TRIPOS>SUBSTRUCTURE
     1 WUS         1 TEMP              0 ****  ****    0 ROOT
