@<TRIPOS>MOLECULE
WUS
   24    25     1     0     0
SMALL
abcg2


@<TRIPOS>ATOM
      1 C10         62.2610   -78.5680     8.3540 cc         1 WUS       0.249300
      2 C01         62.9600   -75.6860     6.3250 c3         1 WUS      -0.122400
      3 C02         62.6870   -76.7270     7.3510 cd         1 WUS       0.406800
      4 N03         62.6370   -76.4570     8.6780 na         1 WUS      -0.296500
      5 C04         62.3630   -77.6260     9.3340 cd         1 WUS      -0.209300
      6 C05         62.2080   -77.8510    10.7940 c6         1 WUS       0.012900
      7 C06         61.5720   -79.2300    10.9940 c6         1 WUS      -0.108400
      8 C07         62.2070   -80.3110    10.1050 c6         1 WUS       0.152500
      9 C08         61.9740   -80.0060     8.6230 c6         1 WUS      -0.087700
     10 N09         61.7490   -81.6620    10.3950 n8         1 WUS      -0.987200
     11 N11         62.4630   -77.9990     7.1240 nc         1 WUS      -0.666000
     12 H1          62.9800   -76.1420     5.3380 hc         1 WUS       0.053700
     13 H2          62.1940   -74.9090     6.3240 hc         1 WUS       0.053700
     14 H3          63.9210   -75.1970     6.4920 hc         1 WUS       0.053700
     15 H4          62.7820   -75.5550     9.1030 hn         1 WUS       0.347000
     16 H5          63.1780   -77.8080    11.3010 hc         1 WUS       0.047200
     17 H6          61.5880   -77.0780    11.2560 hc         1 WUS       0.047200
     18 H7          60.5000   -79.1760    10.7720 hc         1 WUS       0.041700
     19 H8          61.6650   -79.5240    12.0430 hc         1 WUS       0.041700
     20 H9          63.2890   -80.2930    10.2830 h1         1 WUS       0.063700
     21 H10         60.9370   -80.2500     8.3610 hc         1 WUS       0.062700
     22 H11         62.6060   -80.6540     8.0090 hc         1 WUS       0.062700
     23 H12         61.9270   -81.8750    11.3700 hn         1 WUS       0.390500
     24 H13         60.7410   -81.7040    10.2890 hn         1 WUS       0.390500
@<TRIPOS>BOND
     1     1     5 2   
     2     1     9 1   
     3     1    11 1   
     4     2     3 1   
     5     2    12 1   
     6     2    13 1   
     7     2    14 1   
     8     3     4 1   
     9     3    11 2   
    10     4     5 1   
    11     4    15 1   
    12     5     6 1   
    13     6     7 1   
    14     6    16 1   
    15     6    17 1   
    16     7     8 1   
    17     7    18 1   
    18     7    19 1   
    19     8     9 1   
    20     8    10 1   
    21     8    20 1   
    22     9    21 1   
    23     9    22 1   
    24    10    23 1   
    25    10    24 1   
@<TRIPOS>SUBSTRUCTURE
     1 WUS         1 TEMP              0 ****  ****    0 ROOT
