@<TRIPOS>MOLECULE
WUT
   13    14     1     0     0
SMALL
abcg2


@<TRIPOS>ATOM
      1 C4          -2.8620    -3.8700     7.7420 cc         1 WUT       0.424700
      2 C5          -4.5210    -5.1540     8.3380 ca         1 WUT       0.094500
      3 N1          -6.8280    -4.5350     9.4960 nb         1 WUT      -0.195000
      4 N2          -3.7120    -3.0250     8.2480 nd         1 WUT      -0.545100
      5 C3          -4.7720    -3.8050     8.6360 ca         1 WUT      -0.031600
      6 N3          -3.2890    -5.1630     7.7660 na         1 WUT      -0.419300
      7 C1          -6.4700    -5.7740     9.1610 ca         1 WUT       0.131900
      8 C2          -5.9890    -3.5390     9.2400 ca         1 WUT       0.174900
      9 N4          -5.3400    -6.1590     8.5840 nb         1 WUT      -0.172000
     10 H3          -1.8990    -3.6100     7.3300 h5         1 WUT       0.069800
     11 H4          -2.7820    -5.9660     7.4240 hn         1 WUT       0.374000
     12 H1          -7.1850    -6.5570     9.3870 h5         1 WUT       0.053100
     13 H2          -6.2910    -2.5350     9.5190 h4         1 WUT       0.040100
@<TRIPOS>BOND
     1     1     4 2   
     2     1     6 1   
     3     1    10 1   
     4     2     5 ar  
     5     2     6 1   
     6     2     9 ar  
     7     3     7 ar  
     8     3     8 ar  
     9     4     5 1   
    10     5     8 ar  
    11     6    11 1   
    12     7     9 ar  
    13     7    12 1   
    14     8    13 1   
@<TRIPOS>SUBSTRUCTURE
     1 WUT         1 TEMP              0 ****  ****    0 ROOT
