@<TRIPOS>MOLECULE
WUT
   13    14     1     0     0
SMALL
No Charge or Current Charge


@<TRIPOS>ATOM
      1 C4          -2.8120    -3.8410     7.7220 cc         1 WUT       0.424700
      2 C5          -4.5000    -5.1730     8.3270 ca         1 WUT       0.094500
      3 N1          -6.8840    -4.5240     9.5230 nb         1 WUT      -0.195000
      4 N2          -3.7260    -3.0100     8.2600 nd         1 WUT      -0.545100
      5 C3          -4.7660    -3.8610     8.6280 ca         1 WUT      -0.031600
      6 N3          -3.2650    -5.1580     7.7550 na         1 WUT      -0.419300
      7 C1          -6.5230    -5.7880     9.1840 ca         1 WUT       0.131900
      8 C2          -5.9940    -3.5440     9.2410 ca         1 WUT       0.174900
      9 N4          -5.3640    -6.1700     8.5940 nb         1 WUT      -0.172000
     10 H3          -1.8480    -3.5630     7.3120 h5         1 WUT       0.069800
     11 H4          -2.7550    -5.9600     7.4100 hn         1 WUT       0.374000
     12 H1          -7.2380    -6.5770     9.4100 h5         1 WUT       0.053100
     13 H2          -6.2650    -2.5230     9.5050 h4         1 WUT       0.040100
@<TRIPOS>BOND
     1     1     4 2   
     2     1     6 1   
     3     1    10 1   
     4     2     5 ar  
     5     2     6 1   
     6     2     9 ar  
     7     3     7 ar  
     8     3     8 ar  
     9     4     5 1   
    10     5     8 ar  
    11     6    11 1   
    12     7     9 ar  
    13     7    12 1   
    14     8    13 1   
@<TRIPOS>SUBSTRUCTURE
     1 WUT         1 TEMP              0 ****  ****    0 ROOT
