@<TRIPOS>MOLECULE
WUU
   39    41     1     0     0
SMALL
No Charge or Current Charge


@<TRIPOS>ATOM
      1 C1         -15.1520   -23.4010   -32.2370 ca         1 WUU      -0.102500
      2 C2         -14.7990   -24.5170   -31.4560 ca         1 WUU      -0.026000
      3 C3         -14.0550   -24.3160   -30.2790 ca         1 WUU      -0.102500
      4 C10         -9.6530   -17.5100   -30.7770 ca         1 WUU      -0.102000
      5 C11         -8.4980   -18.1220   -30.2650 ca         1 WUU       0.131000
      6 C12         -8.5970   -19.0440   -29.2130 ca         1 WUU      -0.102000
      7 C13         -9.8530   -19.3560   -28.6670 ca         1 WUU       0.138000
      8 C15        -16.5240   -26.1890   -32.1220 c          1 WUU       0.572000
      9 C16        -16.5140   -27.7220   -32.2130 c5         1 WUU      -0.167400
     10 C17        -15.0710   -28.0000   -32.7120 c5         1 WUU      -0.167400
     11 C18        -14.2760   -26.8910   -32.0080 c          1 WUU       0.572000
     12 C4         -13.6680   -23.0220   -29.8860 ca         1 WUU      -0.066000
     13 C5         -14.0200   -21.8950   -30.6680 ca         1 WUU      -0.145600
     14 C6         -14.7670   -22.1070   -31.8490 ca         1 WUU      -0.066000
     15 C7         -13.6220   -20.4840   -30.2830 c          1 WUU       0.615700
     16 C8         -11.0220   -18.7430   -29.1720 ca         1 WUU      -0.101300
     17 C9         -10.9110   -17.8200   -30.2330 ca         1 WUU      -0.064000
     18 N1         -12.9050   -20.3390   -29.1160 ns         1 WUU      -0.502900
     19 N2         -15.1940   -25.8450   -31.8550 n          1 WUU      -0.229000
     20 O1         -13.9180   -19.5140   -30.9690 o          1 WUU      -0.596100
     21 O3         -13.1510   -26.9400   -31.5300 o          1 WUU      -0.484500
     22 Cl2         -9.9320   -20.5300   -27.3520 cl         1 WUU      -0.211000
     23 H1         -15.7180   -23.5320   -33.1570 ha         1 WUU       0.126000
     24 H2         -13.7790   -25.1620   -29.6550 ha         1 WUU       0.126000
     25 H3          -9.5720   -16.7980   -31.5940 ha         1 WUU       0.136000
     26 H4          -7.7020   -19.5180   -28.8210 ha         1 WUU       0.144000
     27 H5         -12.3470   -19.1200   -27.5070 h1         1 WUU       0.064200
     28 H6         -13.1060   -18.2640   -28.8500 h1         1 WUU       0.064200
     29 H7         -17.3290   -28.1020   -32.8390 hc         1 WUU       0.087450
     30 H8         -16.6170   -28.1180   -31.1960 hc         1 WUU       0.087450
     31 H9         -15.0290   -27.8090   -33.7900 hc         1 WUU       0.087450
     32 H10        -14.6650   -28.9950   -32.4990 hc         1 WUU       0.087450
     33 H11        -13.0950   -22.9190   -28.9680 ha         1 WUU       0.128500
     34 H12        -15.0530   -21.2640   -32.4760 ha         1 WUU       0.128500
     35 H13        -11.8020   -17.3450   -30.6390 ha         1 WUU       0.132000
     36 H14        -12.6910   -21.1810   -28.5990 hn         1 WUU       0.325500
     37 O2         -17.4340   -25.4120   -32.3800 o          1 WUU      -0.484500
     38 C14        -12.3980   -19.0660   -28.6020 c3         1 WUU       0.157300
     39 Cl1         -6.9240   -17.7340   -30.9470 cl         1 WUU      -0.191000
@<TRIPOS>BOND
     1     1     2 ar  
     2     1    14 ar  
     3     1    23 1   
     4     2     3 ar  
     5     2    19 1   
     6     3    12 ar  
     7     3    24 1   
     8     4     5 ar  
     9     4    17 ar  
    10     4    25 1   
    11     5     6 ar  
    12     5    39 1   
    13     6     7 ar  
    14     6    26 1   
    15     7    16 ar  
    16     7    22 1   
    17     8     9 1   
    18     8    19 1   
    19     8    37 2   
    20     9    10 1   
    21     9    29 1   
    22     9    30 1   
    23    10    11 1   
    24    10    31 1   
    25    10    32 1   
    26    11    19 1   
    27    11    21 2   
    28    12    13 ar  
    29    12    33 1   
    30    13    14 ar  
    31    13    15 1   
    32    14    34 1   
    33    15    18 1   
    34    15    20 2   
    35    16    17 ar  
    36    16    38 1   
    37    17    35 1   
    38    18    36 1   
    39    18    38 1   
    40    27    38 1   
    41    28    38 1   
@<TRIPOS>SUBSTRUCTURE
     1 WUU         1 TEMP              0 ****  ****    0 ROOT
