@<TRIPOS>MOLECULE
WUU
   39    41     1     0     0
SMALL
abcg2


@<TRIPOS>ATOM
      1 C1         -15.2610   -23.3280   -32.1040 ca         1 WUU      -0.102500
      2 C2         -14.7050   -24.4050   -31.4280 ca         1 WUU      -0.026000
      3 C3         -13.7810   -24.2000   -30.4150 ca         1 WUU      -0.102500
      4 C10         -9.5420   -17.7010   -30.6440 ca         1 WUU      -0.102000
      5 C11         -8.5760   -18.5600   -30.1460 ca         1 WUU       0.131000
      6 C12         -8.8900   -19.5200   -29.1970 ca         1 WUU      -0.102000
      7 C13        -10.2010   -19.6100   -28.7580 ca         1 WUU       0.138000
      8 C15        -16.2970   -26.2910   -31.4900 c          1 WUU       0.572000
      9 C16        -16.2950   -27.7020   -32.0190 c5         1 WUU      -0.167400
     10 C17        -14.9470   -27.8730   -32.7070 c5         1 WUU      -0.167400
     11 C18        -14.2210   -26.5720   -32.4880 c          1 WUU       0.572000
     12 C4         -13.4120   -22.9070   -30.0760 ca         1 WUU      -0.066000
     13 C5         -13.9650   -21.8190   -30.7450 ca         1 WUU      -0.145600
     14 C6         -14.8830   -22.0400   -31.7680 ca         1 WUU      -0.066000
     15 C7         -13.5420   -20.4150   -30.4510 c          1 WUU       0.615700
     16 C8         -11.2060   -18.7740   -29.2370 ca         1 WUU      -0.101300
     17 C9         -10.8440   -17.8240   -30.1850 ca         1 WUU      -0.064000
     18 N1         -13.2320   -20.1510   -29.1710 ns         1 WUU      -0.502900
     19 N2         -15.0670   -25.7250   -31.7880 n          1 WUU      -0.229000
     20 O1         -13.4860   -19.5720   -31.3340 o          1 WUU      -0.596100
     21 O3         -13.1120   -26.2710   -32.8450 o          1 WUU      -0.484500
     22 CL2        -10.5720   -20.8100   -27.5630 cl         1 WUU      -0.211000
     23 H1         -15.9750   -23.4970   -32.9000 ha         1 WUU       0.126000
     24 H2         -13.3470   -25.0440   -29.8960 ha         1 WUU       0.126000
     25 H3          -9.2900   -16.9540   -31.3830 ha         1 WUU       0.136000
     26 H4          -8.1310   -20.1830   -28.8070 ha         1 WUU       0.144000
     27 H5         -12.6910   -18.8370   -27.6860 h1         1 WUU       0.064200
     28 H6         -13.2160   -18.0610   -29.1650 h1         1 WUU       0.064200
     29 H7         -17.1420   -27.8370   -32.6910 hc         1 WUU       0.087450
     30 H8         -16.4350   -28.3900   -31.1840 hc         1 WUU       0.087450
     31 H9         -15.0380   -28.0500   -33.7790 hc         1 WUU       0.087450
     32 H10        -14.3550   -28.6900   -32.2950 hc         1 WUU       0.087450
     33 H11        -12.6660   -22.7640   -29.3030 ha         1 WUU       0.128500
     34 H12        -15.3080   -21.2020   -32.3040 ha         1 WUU       0.128500
     35 H13        -11.6040   -17.1590   -30.5770 ha         1 WUU       0.132000
     36 H14        -13.3710   -20.8530   -28.4640 hn         1 WUU       0.325500
     37 O2         -17.1780   -25.7190   -30.9030 o          1 WUU      -0.484500
     38 C14        -12.6340   -18.8960   -28.7730 c3         1 WUU       0.157300
     39 CL1         -6.9460   -18.4410   -30.7110 cl         1 WUU      -0.191000
@<TRIPOS>BOND
     1     1     2 ar  
     2     1    14 ar  
     3     1    23 1   
     4     2     3 ar  
     5     2    19 1   
     6     3    12 ar  
     7     3    24 1   
     8     4     5 ar  
     9     4    17 ar  
    10     4    25 1   
    11     5     6 ar  
    12     5    39 1   
    13     6     7 ar  
    14     6    26 1   
    15     7    16 ar  
    16     7    22 1   
    17     8     9 1   
    18     8    19 1   
    19     8    37 2   
    20     9    10 1   
    21     9    29 1   
    22     9    30 1   
    23    10    11 1   
    24    10    31 1   
    25    10    32 1   
    26    11    19 1   
    27    11    21 2   
    28    12    13 ar  
    29    12    33 1   
    30    13    14 ar  
    31    13    15 1   
    32    14    34 1   
    33    15    18 1   
    34    15    20 2   
    35    16    17 ar  
    36    16    38 1   
    37    17    35 1   
    38    18    36 1   
    39    18    38 1   
    40    27    38 1   
    41    28    38 1   
@<TRIPOS>SUBSTRUCTURE
     1 WUU         1 TEMP              0 ****  ****    0 ROOT
