@<TRIPOS>MOLECULE
WUV
   31    32     1     0     0
SMALL
abcg2


@<TRIPOS>ATOM
      1 C10          4.9110   -98.8830    16.5530 c3         1 WUV       0.042600
      2 C13          4.0080   -96.5790    21.1960 c          1 WUV       0.617000
      3 C01          8.0270   -96.0600    19.6880 c3         1 WUV      -0.018900
      4 C02          6.6400   -96.2410    20.2120 cc         1 WUV      -0.274400
      5 C03          5.7740   -97.1250    19.6840 cd         1 WUV      -0.006400
      6 N04          4.5030   -97.3180    20.1490 n          1 WUV      -0.323000
      7 C05          3.5790   -98.2620    19.5000 c5         1 WUV       0.346700
      8 C06          2.7310   -97.6210    18.4060 c5         1 WUV      -0.170400
      9 C07          2.5460   -98.7750    17.4300 c5         1 WUV       0.142300
     10 O08          1.5730   -99.6920    17.8710 oh         1 WUV      -0.706000
     11 C09          3.9040   -99.4650    17.5300 c5         1 WUV       0.178300
     12 S11          6.5690   -99.5410    16.9320 sh         1 WUV      -0.407800
     13 O12          4.3150   -99.2820    18.8850 os         1 WUV      -0.438000
     14 N15          4.9040   -95.7000    21.7450 ns         1 WUV      -0.466500
     15 C16          6.2040   -95.4470    21.3410 c          1 WUV       0.588200
     16 O17          6.8810   -94.6180    21.9210 o          1 WUV      -0.529000
     17 H1           4.9340   -97.7930    16.5960 h1         1 WUV       0.065700
     18 H2           4.6280   -99.1770    15.5430 h1         1 WUV       0.065700
     19 H3           8.1910   -95.0410    19.3350 hc         1 WUV       0.045700
     20 H4           8.7740   -96.2600    20.4570 hc         1 WUV       0.045700
     21 H5           8.2160   -96.7360    18.8540 hc         1 WUV       0.045700
     22 H6           6.0750   -97.7520    18.8560 h4         1 WUV       0.232000
     23 H7           2.9620   -98.6850    20.2940 h2         1 WUV       0.110700
     24 H8           3.2680   -96.7980    17.9290 hc         1 WUV       0.076700
     25 H9           1.7920   -97.2210    18.7860 hc         1 WUV       0.076700
     26 H10          2.3420   -98.4260    16.4110 h1         1 WUV       0.056700
     27 H11          0.7290   -99.2320    17.9330 ho         1 WUV       0.514000
     28 H12          3.8150  -100.5400    17.3520 h1         1 WUV       0.109700
     29 H13          7.1930   -99.0150    15.8730 hs         1 WUV       0.203800
     30 H14          4.5540   -95.1570    22.5250 hn         1 WUV       0.342500
     31 O14          2.8690   -96.6870    21.6060 o          1 WUV      -0.568000
@<TRIPOS>BOND
     1     1    11 1   
     2     1    12 1   
     3     1    17 1   
     4     1    18 1   
     5     2     6 1   
     6     2    14 1   
     7     2    31 2   
     8     3     4 1   
     9     3    19 1   
    10     3    20 1   
    11     3    21 1   
    12     4     5 2   
    13     4    15 1   
    14     5     6 1   
    15     5    22 1   
    16     6     7 1   
    17     7     8 1   
    18     7    13 1   
    19     7    23 1   
    20     8     9 1   
    21     8    24 1   
    22     8    25 1   
    23     9    10 1   
    24     9    11 1   
    25     9    26 1   
    26    10    27 1   
    27    11    13 1   
    28    11    28 1   
    29    12    29 1   
    30    14    15 1   
    31    14    30 1   
    32    15    16 2   
@<TRIPOS>SUBSTRUCTURE
     1 WUV         1 TEMP              0 ****  ****    0 ROOT
