@<TRIPOS>MOLECULE
WUV
   31    32     1     0     0
SMALL
No Charge or Current Charge


@<TRIPOS>ATOM
      1 C10          4.8640   -99.3110    16.4000 c3         1 WUV       0.042600
      2 C13          4.0620   -96.7080    21.3410 c          1 WUV       0.617000
      3 C01          7.9860   -95.6410    19.8480 c3         1 WUV      -0.018900
      4 C02          6.6090   -96.0530    20.3160 cc         1 WUV      -0.274400
      5 C03          5.8100   -96.9630    19.6560 cd         1 WUV      -0.006400
      6 N04          4.5460   -97.2870    20.1560 n          1 WUV      -0.323000
      7 C05          3.6780   -98.2640    19.4540 c5         1 WUV       0.346700
      8 C06          2.9820   -97.5100    18.2970 c5         1 WUV      -0.170400
      9 C07          2.5420   -98.7240    17.4480 c5         1 WUV       0.142300
     10 O08          1.4020   -99.3660    18.0330 oh         1 WUV      -0.706000
     11 C09          3.8390   -99.6060    17.5260 c5         1 WUV       0.178300
     12 S11          6.4580  -100.2650    16.4250 sh         1 WUV      -0.407800
     13 O12          4.4520   -99.2960    18.8080 os         1 WUV      -0.438000
     14 N15          4.8890   -95.8210    21.9510 ns         1 WUV      -0.466500
     15 C16          6.1280   -95.4200    21.5660 c          1 WUV       0.588200
     16 O17          6.7580   -94.6060    22.2220 o          1 WUV      -0.529000
     17 H1           5.1160   -98.2430    16.4220 h1         1 WUV       0.065700
     18 H2           4.3780   -99.5090    15.4360 h1         1 WUV       0.065700
     19 H3           8.0300   -94.5620    19.6540 hc         1 WUV       0.045700
     20 H4           8.7460   -95.8820    20.6010 hc         1 WUV       0.045700
     21 H5           8.2630   -96.1560    18.9210 hc         1 WUV       0.045700
     22 H6           6.0890   -97.4740    18.7380 h4         1 WUV       0.232000
     23 H7           2.9590   -98.7030    20.1590 h2         1 WUV       0.110700
     24 H8           3.6700   -96.8570    17.7490 hc         1 WUV       0.076700
     25 H9           2.1440   -96.8940    18.6410 hc         1 WUV       0.076700
     26 H10          2.3190   -98.4330    16.4110 h1         1 WUV       0.056700
     27 H11          0.6090   -98.8290    17.7950 ho         1 WUV       0.514000
     28 H12          3.5890  -100.6760    17.4930 h1         1 WUV       0.109700
     29 H13          6.9910   -99.7010    15.3130 hs         1 WUV       0.203800
     30 H14          4.5370   -95.4070    22.7990 hn         1 WUV       0.342500
     31 O14          2.9670   -96.9630    21.8150 o          1 WUV      -0.568000
@<TRIPOS>BOND
     1     1    11 1   
     2     1    12 1   
     3     1    17 1   
     4     1    18 1   
     5     2     6 1   
     6     2    14 1   
     7     2    31 2   
     8     3     4 1   
     9     3    19 1   
    10     3    20 1   
    11     3    21 1   
    12     4     5 2   
    13     4    15 1   
    14     5     6 1   
    15     5    22 1   
    16     6     7 1   
    17     7     8 1   
    18     7    13 1   
    19     7    23 1   
    20     8     9 1   
    21     8    24 1   
    22     8    25 1   
    23     9    10 1   
    24     9    11 1   
    25     9    26 1   
    26    10    27 1   
    27    11    13 1   
    28    11    28 1   
    29    12    29 1   
    30    14    15 1   
    31    14    30 1   
    32    15    16 2   
@<TRIPOS>SUBSTRUCTURE
     1 WUV         1 TEMP              0 ****  ****    0 ROOT
