@<TRIPOS>MOLECULE
WUW
   38    39     1     0     0
SMALL
No Charge or Current Charge


@<TRIPOS>ATOM
      1 N1          24.4580    18.7170    15.0640 n3         1 WUW      -0.754500
      2 C4          25.6300    20.2320    13.4900 c6         1 WUW      -0.078400
      3 C5          24.5080    20.1220    14.5620 c6         1 WUW       0.232500
      4 C6          24.7950    21.1480    15.7000 c6         1 WUW      -0.083400
      5 C7          26.1280    20.7590    16.4030 c6         1 WUW      -0.101700
      6 C8          25.9720    19.3240    17.0390 c6         1 WUW       0.179300
      7 C10         21.7250    18.2560    15.2000 c3         1 WUW      -0.379100
      8 C1          29.2530    19.6080    16.1770 c3         1 WUW       0.153900
      9 C2          27.2660    20.9090    15.3330 c6         1 WUW       0.182300
     10 C3          27.0410    19.9890    14.0990 c6         1 WUW      -0.100400
     11 C9          24.7000    18.5670    16.5290 c6         1 WUW       0.203800
     12 O1          28.6210    20.8650    15.8560 os         1 WUW      -0.471000
     13 O2          23.5390    16.3410    14.8170 o          1 WUW      -0.535500
     14 O3          23.1500    18.0250    12.9730 o          1 WUW      -0.535500
     15 O4          25.9150    19.3950    18.4870 os         1 WUW      -0.462000
     16 S1          23.2280    17.7130    14.4030 s6         1 WUW       1.212100
     17 H7          25.5950    21.2300    13.0310 hc         1 WUW       0.061200
     18 H8          25.4490    19.5180    12.6760 hc         1 WUW       0.061200
     19 H9          23.5520    20.4050    14.0960 h1         1 WUW       0.055700
     20 H11         24.8570    22.1640    15.2850 hc         1 WUW       0.054200
     21 H10         23.9640    21.1740    16.4190 hc         1 WUW       0.054200
     22 H12         26.3130    21.4990    17.1930 hc         1 WUW       0.074700
     23 H13         26.8260    18.6980    16.7600 h1         1 WUW       0.051700
     24 H16         21.8270    18.0680    16.2730 h1         1 WUW       0.100033
     25 H17         21.6020    19.3220    14.9900 h1         1 WUW       0.100033
     26 H18         20.9030    17.6720    14.7750 h1         1 WUW       0.100033
     27 H1          30.3120    19.7740    16.4070 h1         1 WUW       0.029033
     28 H2          28.8040    19.1410    17.0570 h1         1 WUW       0.029033
     29 H3          29.2060    18.9050    15.3350 h1         1 WUW       0.029033
     30 H19         26.9210    19.8130    20.2710 h1         1 WUW       0.033700
     31 H20         27.8790    18.9380    19.0630 h1         1 WUW       0.033700
     32 H21         27.5490    20.6770    18.8540 h1         1 WUW       0.033700
     33 H4          27.1640    21.9360    14.9510 h1         1 WUW       0.055700
     34 H5          27.1380    18.9320    14.3800 hc         1 WUW       0.054700
     35 H6          27.8110    20.1850    13.3410 hc         1 WUW       0.054700
     36 H15         23.8300    18.9310    17.0940 h1         1 WUW       0.062200
     37 H14         24.8180    17.5060    16.7920 h1         1 WUW       0.062200
     38 C11         27.1250    19.7250    19.1960 c3         1 WUW       0.145900
@<TRIPOS>BOND
     1     1     3 1   
     2     1    11 1   
     3     1    16 1   
     4     2     3 1   
     5     2    10 1   
     6     2    17 1   
     7     2    18 1   
     8     3     4 1   
     9     3    19 1   
    10     4     5 1   
    11     4    20 1   
    12     4    21 1   
    13     5     6 1   
    14     5     9 1   
    15     5    22 1   
    16     6    11 1   
    17     6    15 1   
    18     6    23 1   
    19     7    16 1   
    20     7    24 1   
    21     7    25 1   
    22     7    26 1   
    23     8    12 1   
    24     8    27 1   
    25     8    28 1   
    26     8    29 1   
    27     9    10 1   
    28     9    12 1   
    29     9    33 1   
    30    10    34 1   
    31    10    35 1   
    32    11    36 1   
    33    11    37 1   
    34    13    16 2   
    35    14    16 2   
    36    15    38 1   
    37    30    38 1   
    38    31    38 1   
    39    32    38 1   
@<TRIPOS>SUBSTRUCTURE
     1 WUW         1 TEMP              0 ****  ****    0 ROOT
