@<TRIPOS>MOLECULE
WUW
   38    39     1     0     0
SMALL
abcg2


@<TRIPOS>ATOM
      1 N1          24.4140    18.8760    15.2270 n3         1 WUW      -0.754500
      2 C4          25.6610    20.2290    13.5780 c6         1 WUW      -0.078400
      3 C5          24.5180    20.2100    14.5910 c6         1 WUW       0.232500
      4 C6          24.8070    21.2320    15.6820 c6         1 WUW      -0.083400
      5 C7          26.0850    20.8250    16.4110 c6         1 WUW      -0.101700
      6 C8          25.8850    19.4520    17.0980 c6         1 WUW       0.179300
      7 C10         21.7920    18.0710    15.1420 c3         1 WUW      -0.379100
      8 C1          29.2420    19.5080    15.8870 c3         1 WUW       0.153900
      9 C2          27.2530    20.8540    15.4150 c6         1 WUW       0.182300
     10 C3          27.0060    19.9240    14.2320 c6         1 WUW      -0.100400
     11 C9          24.5700    18.8000    16.6770 c6         1 WUW       0.203800
     12 O1          28.4810    20.6700    16.1030 os         1 WUW      -0.471000
     13 O2          23.8420    16.4420    15.0070 o          1 WUW      -0.535500
     14 O3          23.4300    18.0040    13.0930 o          1 WUW      -0.535500
     15 O4          25.8150    19.5520    18.5000 os         1 WUW      -0.462000
     16 S1          23.4340    17.7540    14.5270 s6         1 WUW       1.212100
     17 H7          25.6850    21.2210    13.1180 hc         1 WUW       0.061200
     18 H8          25.4720    19.5160    12.7770 hc         1 WUW       0.061200
     19 H9          23.5790    20.4710    14.0940 h1         1 WUW       0.055700
     20 H11         24.9260    22.2120    15.2130 hc         1 WUW       0.054200
     21 H10         23.9700    21.3270    16.3760 hc         1 WUW       0.054200
     22 H12         26.2970    21.5690    17.1850 hc         1 WUW       0.074700
     23 H13         26.6960    18.7640    16.8240 h1         1 WUW       0.051700
     24 H16         21.7720    17.9460    16.2220 h1         1 WUW       0.100033
     25 H17         21.4960    19.0840    14.8770 h1         1 WUW       0.100033
     26 H18         21.1150    17.3550    14.6780 h1         1 WUW       0.100033
     27 H1          30.1320    19.6000    16.5110 h1         1 WUW       0.029033
     28 H2          28.7290    18.5860    16.1800 h1         1 WUW       0.029033
     29 H3          29.5740    19.3960    14.8510 h1         1 WUW       0.029033
     30 H19         26.8910    19.7520    20.2000 h1         1 WUW       0.033700
     31 H20         27.7240    18.8440    18.9250 h1         1 WUW       0.033700
     32 H21         27.5910    20.6060    18.8160 h1         1 WUW       0.033700
     33 H4          27.2870    21.8760    15.0130 h1         1 WUW       0.055700
     34 H5          27.0210    18.8760    14.5400 hc         1 WUW       0.054700
     35 H6          27.7980    20.0410    13.4890 hc         1 WUW       0.054700
     36 H15         23.7380    19.2850    17.2010 h1         1 WUW       0.062200
     37 H14         24.5800    17.7550    16.9830 h1         1 WUW       0.062200
     38 C11         27.0650    19.6970    19.1260 c3         1 WUW       0.145900
@<TRIPOS>BOND
     1     1     3 1   
     2     1    11 1   
     3     1    16 1   
     4     2     3 1   
     5     2    10 1   
     6     2    17 1   
     7     2    18 1   
     8     3     4 1   
     9     3    19 1   
    10     4     5 1   
    11     4    20 1   
    12     4    21 1   
    13     5     6 1   
    14     5     9 1   
    15     5    22 1   
    16     6    11 1   
    17     6    15 1   
    18     6    23 1   
    19     7    16 1   
    20     7    24 1   
    21     7    25 1   
    22     7    26 1   
    23     8    12 1   
    24     8    27 1   
    25     8    28 1   
    26     8    29 1   
    27     9    10 1   
    28     9    12 1   
    29     9    33 1   
    30    10    34 1   
    31    10    35 1   
    32    11    36 1   
    33    11    37 1   
    34    13    16 2   
    35    14    16 2   
    36    15    38 1   
    37    30    38 1   
    38    31    38 1   
    39    32    38 1   
@<TRIPOS>SUBSTRUCTURE
     1 WUW         1 TEMP              0 ****  ****    0 ROOT
