@<TRIPOS>MOLECULE
WUX
   92    96     1     0     0
SMALL
abcg2


@<TRIPOS>ATOM
      1 C1         206.3860   267.9650   303.6800 c6         1 WUX      -0.070400
      2 C10        205.7000   268.4640   304.9660 c6         1 WUX      -0.028000
      3 C11        203.3960   268.3940   303.7190 c6         1 WUX       0.180300
      4 C12        201.9310   268.8070   303.8560 c6         1 WUX      -0.054400
      5 C13        201.8410   270.3170   303.7990 c5         1 WUX      -0.073700
      6 C14        202.6220   270.9970   304.9340 c5         1 WUX      -0.045000
      7 C15        202.2310   272.4590   304.6700 c5         1 WUX      -0.095400
      8 C16        200.7510   272.4200   304.2500 c5         1 WUX       0.177300
      9 C17        200.4580   270.9720   303.7990 c5         1 WUX      -0.034700
     10 C19        205.4820   267.2500   305.8890 c3         1 WUX      -0.090100
     11 C2         207.7790   267.3900   303.9470 c6         1 WUX      -0.068400
     12 C21        202.0580   270.6000   306.3150 c3         1 WUX      -0.080100
     13 C22        199.6710   270.8580   302.4760 c3         1 WUX      -0.185700
     14 C23        200.4500   271.3680   301.2660 c3         1 WUX      -0.049400
     15 C24        199.7580   271.1300   299.9300 c3         1 WUX      -0.068400
     16 C25        200.5620   271.5810   298.7100 c3         1 WUX      -0.065400
     17 C26        201.8860   270.8520   298.4780 c5         1 WUX      -0.061700
     18 C27        203.0820   271.3200   299.3510 c5         1 WUX      -0.079400
     19 C28        204.2830   271.4860   298.4010 c5         1 WUX      -0.080900
     20 C29        198.2920   271.5320   302.6820 c          1 WUX       0.716000
     21 C3         208.6920   268.3320   304.7140 c6         1 WUX       0.177300
     22 C30        203.8890   270.7190   297.1390 c5         1 WUX      -0.080900
     23 C32        198.6690   274.1280   306.7820 c3         1 WUX      -0.157100
     24 C33        202.3950   270.9950   297.0370 c5         1 WUX      -0.079400
     25 C4         208.0120   268.8840   305.9800 c6         1 WUX      -0.086700
     26 C5         206.6570   269.4990   305.6060 c6         1 WUX      -0.052700
     27 C6         205.9190   270.2700   306.6900 c6         1 WUX      -0.066400
     28 C7         204.9270   271.2290   306.0330 c6         1 WUX      -0.075400
     29 C8         204.1510   270.6560   304.8060 c6         1 WUX      -0.001000
     30 C9         204.2640   269.0960   304.7870 c6         1 WUX      -0.082700
     31 O1         203.7420   268.6480   302.3670 oh         1 WUX      -0.662000
     32 O2         199.8550   272.7300   305.3350 os         1 WUX      -0.429100
     33 O3         200.1920   274.9300   305.1040 o          1 WUX      -0.515000
     34 O4         198.1680   272.7210   302.3190 o          1 WUX      -0.732500
     35 O5         197.4170   270.8370   303.2400 o          1 WUX      -0.732500
     36 O6         209.0740   269.3610   303.8180 oh         1 WUX      -0.662000
     37 H1         206.4880   268.7850   302.9610 hc         1 WUX       0.047700
     38 H2         205.7960   267.1740   303.2060 hc         1 WUX       0.047700
     39 H3         203.4660   267.3130   303.9110 h1         1 WUX       0.013700
     40 H4         201.3490   268.3430   303.0540 hc         1 WUX       0.052700
     41 H5         201.5260   268.4230   304.7960 hc         1 WUX       0.052700
     42 H6         202.3270   270.6270   302.8730 hc         1 WUX       0.066700
     43 H7         202.7950   272.8530   303.8230 hc         1 WUX       0.046200
     44 H8         202.4180   273.1290   305.5120 hc         1 WUX       0.046200
     45 H9         200.5600   273.1330   303.4490 h1         1 WUX       0.100700
     46 H10        199.8390   270.4940   304.5660 hc         1 WUX       0.074700
     47 H14        205.1020   267.5540   306.8650 hc         1 WUX       0.029700
     48 H15        204.7410   266.5770   305.4520 hc         1 WUX       0.029700
     49 H16        206.3780   266.6590   306.0650 hc         1 WUX       0.029700
     50 H17        207.7000   266.4550   304.5060 hc         1 WUX       0.043200
     51 H18        208.2520   267.1260   302.9980 hc         1 WUX       0.043200
     52 H22        202.2690   271.3640   307.0630 hc         1 WUX       0.030367
     53 H23        200.9760   270.4850   306.2950 hc         1 WUX       0.030367
     54 H24        202.4560   269.6620   306.7010 hc         1 WUX       0.030367
     55 H25        199.4940   269.7850   302.3240 hc         1 WUX       0.035700
     56 H26        201.4130   270.8580   301.2380 hc         1 WUX       0.022700
     57 H27        200.6750   272.4340   301.3730 hc         1 WUX       0.022700
     58 H28        198.7950   271.6460   299.9230 hc         1 WUX       0.046700
     59 H29        199.5350   270.0620   299.8270 hc         1 WUX       0.046700
     60 H30        200.7530   272.6590   298.7690 hc         1 WUX       0.028200
     61 H31        199.9330   271.4380   297.8250 hc         1 WUX       0.028200
     62 H32        201.7200   269.7840   298.6640 hc         1 WUX       0.045700
     63 H33        203.3010   270.5860   300.1280 hc         1 WUX       0.043200
     64 H34        202.8550   272.2550   299.8670 hc         1 WUX       0.043200
     65 H35        205.2180   271.1390   298.8420 hc         1 WUX       0.031200
     66 H36        204.4230   272.5410   298.1530 hc         1 WUX       0.031200
     67 H37        209.5830   267.7690   305.0300 h1         1 WUX       0.016700
     68 H38        204.4520   271.0280   296.2560 hc         1 WUX       0.031200
     69 H39        204.0610   269.6470   297.2770 hc         1 WUX       0.031200
     70 H40        198.5240   275.1710   307.0470 hc         1 WUX       0.059367
     71 H41        197.7090   273.6960   306.5000 hc         1 WUX       0.059367
     72 H42        199.0210   273.5840   307.6600 hc         1 WUX       0.059367
     73 H43        202.2340   272.0210   296.6850 hc         1 WUX       0.043200
     74 H44        201.8720   270.3320   296.3440 hc         1 WUX       0.043200
     75 H45        207.8660   268.0350   306.6570 hc         1 WUX       0.049700
     76 H46        206.8950   270.2360   304.8310 hc         1 WUX       0.063700
     77 H47        205.4110   269.5870   307.3790 hc         1 WUX       0.033200
     78 H48        206.6050   270.8540   307.3050 hc         1 WUX       0.033200
     79 H49        205.4880   272.1070   305.7000 hc         1 WUX       0.040200
     80 H50        204.2420   271.6020   306.7940 hc         1 WUX       0.040200
     81 H51        203.7610   268.7930   305.7100 hc         1 WUX       0.051700
     82 H52        204.6740   268.4640   302.2370 ho         1 WUX       0.434000
     83 H54        209.7010   269.9400   304.2610 ho         1 WUX       0.437000
     84 C18        208.9320   269.8730   306.6960 c3         1 WUX      -0.093100
     85 C20        204.7540   271.2940   303.5400 c3         1 WUX      -0.086100
     86 C31        199.6530   274.0000   305.6550 c          1 WUX       0.608100
     87 H11        208.5920   270.0740   307.7110 hc         1 WUX       0.031367
     88 H12        209.9480   269.4780   306.7740 hc         1 WUX       0.031367
     89 H13        208.9820   270.8360   306.1820 hc         1 WUX       0.031367
     90 H19        204.8480   272.3740   303.6580 hc         1 WUX       0.036367
     91 H20        205.7600   270.9190   303.3530 hc         1 WUX       0.036367
     92 H21        204.1800   271.1100   302.6360 hc         1 WUX       0.036367
@<TRIPOS>BOND
     1     1     2 1   
     2     1    11 1   
     3     1    37 1   
     4     1    38 1   
     5     2    10 1   
     6     2    26 1   
     7     2    30 1   
     8     3     4 1   
     9     3    30 1   
    10     3    31 1   
    11     3    39 1   
    12     4     5 1   
    13     4    40 1   
    14     4    41 1   
    15     5     6 1   
    16     5     9 1   
    17     5    42 1   
    18     6     7 1   
    19     6    12 1   
    20     6    29 1   
    21     7     8 1   
    22     7    43 1   
    23     7    44 1   
    24     8     9 1   
    25     8    32 1   
    26     8    45 1   
    27     9    13 1   
    28     9    46 1   
    29    10    47 1   
    30    10    48 1   
    31    10    49 1   
    32    11    21 1   
    33    11    50 1   
    34    11    51 1   
    35    12    52 1   
    36    12    53 1   
    37    12    54 1   
    38    13    14 1   
    39    13    20 1   
    40    13    55 1   
    41    14    15 1   
    42    14    56 1   
    43    14    57 1   
    44    15    16 1   
    45    15    58 1   
    46    15    59 1   
    47    16    17 1   
    48    16    60 1   
    49    16    61 1   
    50    17    18 1   
    51    17    24 1   
    52    17    62 1   
    53    18    19 1   
    54    18    63 1   
    55    18    64 1   
    56    19    22 1   
    57    19    65 1   
    58    19    66 1   
    59    20    34 1   
    60    20    35 1   
    61    21    25 1   
    62    21    36 1   
    63    21    67 1   
    64    22    24 1   
    65    22    68 1   
    66    22    69 1   
    67    23    70 1   
    68    23    71 1   
    69    23    72 1   
    70    23    86 1   
    71    24    73 1   
    72    24    74 1   
    73    25    26 1   
    74    25    75 1   
    75    25    84 1   
    76    26    27 1   
    77    26    76 1   
    78    27    28 1   
    79    27    77 1   
    80    27    78 1   
    81    28    29 1   
    82    28    79 1   
    83    28    80 1   
    84    29    30 1   
    85    29    85 1   
    86    30    81 1   
    87    31    82 1   
    88    32    86 1   
    89    33    86 2   
    90    36    83 1   
    91    84    87 1   
    92    84    88 1   
    93    84    89 1   
    94    85    90 1   
    95    85    91 1   
    96    85    92 1   
@<TRIPOS>SUBSTRUCTURE
     1 WUX         1 TEMP              0 ****  ****    0 ROOT
