@<TRIPOS>MOLECULE
WUX
   92    96     1     0     0
SMALL
No Charge or Current Charge


@<TRIPOS>ATOM
      1 C1         206.6530   268.0570   303.8760 c6         1 WUX      -0.070400
      2 C10        205.8510   268.4770   305.1600 c6         1 WUX      -0.028000
      3 C11        203.5570   268.4230   303.6820 c6         1 WUX       0.180300
      4 C12        202.0600   268.8490   303.6840 c6         1 WUX      -0.054400
      5 C13        201.9330   270.3910   303.7250 c5         1 WUX      -0.073700
      6 C14        202.6190   271.0170   304.9870 c5         1 WUX      -0.045000
      7 C15        202.2560   272.5110   304.6660 c5         1 WUX      -0.095400
      8 C16        200.7500   272.4850   304.2050 c5         1 WUX       0.177300
      9 C17        200.4940   271.0150   303.6980 c5         1 WUX      -0.034700
     10 C19        205.5990   267.1660   306.0100 c3         1 WUX      -0.090100
     11 C2         208.0660   267.4710   304.1900 c6         1 WUX      -0.068400
     12 C21        201.9210   270.5820   306.3470 c3         1 WUX      -0.080100
     13 C22        199.7080   270.8740   302.3480 c3         1 WUX      -0.185700
     14 C23        200.3660   271.5610   301.1120 c3         1 WUX      -0.049400
     15 C24        199.6390   271.2750   299.7740 c3         1 WUX      -0.068400
     16 C25        200.3220   271.8820   298.5200 c3         1 WUX      -0.065400
     17 C26        201.4480   271.0330   297.8660 c5         1 WUX      -0.061700
     18 C27        202.7400   270.8220   298.7050 c5         1 WUX      -0.079400
     19 C28        203.8060   270.3590   297.6610 c5         1 WUX      -0.080900
     20 C29        198.2300   271.3080   302.5250 c          1 WUX       0.716000
     21 C3         208.9320   268.3890   305.0940 c6         1 WUX       0.177300
     22 C30        203.1780   270.6710   296.2690 c5         1 WUX      -0.080900
     23 C32        198.9090   274.1300   307.0090 c3         1 WUX      -0.157100
     24 C33        202.0600   271.6880   296.6030 c5         1 WUX      -0.079400
     25 C4         208.1670   268.8690   306.3730 c6         1 WUX      -0.086700
     26 C5         206.8020   269.5080   305.9410 c6         1 WUX      -0.052700
     27 C6         205.9870   270.2340   307.0330 c6         1 WUX      -0.066400
     28 C7         204.8930   271.1570   306.3690 c6         1 WUX      -0.075400
     29 C8         204.2010   270.6630   304.9990 c6         1 WUX      -0.001000
     30 C9         204.3610   269.0790   304.8760 c6         1 WUX      -0.082700
     31 O1         204.1260   268.7190   302.4040 oh         1 WUX      -0.662000
     32 O2         199.8920   272.7060   305.3590 os         1 WUX      -0.429100
     33 O3         200.3300   274.9730   305.2380 o          1 WUX      -0.515000
     34 O4         197.9760   272.4920   302.6930 o          1 WUX      -0.732500
     35 O5         197.3670   270.4450   302.4570 o          1 WUX      -0.732500
     36 O6         209.3870   269.5100   304.3280 oh         1 WUX      -0.662000
     37 H1         206.7760   268.9160   303.2040 hc         1 WUX       0.047700
     38 H2         206.1010   267.2940   303.3130 hc         1 WUX       0.047700
     39 H3         203.5790   267.3330   303.8230 h1         1 WUX       0.013700
     40 H4         201.5600   268.4480   302.7930 hc         1 WUX       0.052700
     41 H5         201.5490   268.4090   304.5500 hc         1 WUX       0.052700
     42 H6         202.4530   270.7140   302.8250 hc         1 WUX       0.066700
     43 H7         202.8510   272.9240   303.8450 hc         1 WUX       0.046200
     44 H8         202.4350   273.1720   305.5210 hc         1 WUX       0.046200
     45 H9         200.5400   273.2360   303.4300 h1         1 WUX       0.100700
     46 H10        199.8550   270.4830   304.4100 hc         1 WUX       0.074700
     47 H14        205.1050   267.3820   306.9650 hc         1 WUX       0.029700
     48 H15        204.9530   266.4630   305.4700 hc         1 WUX       0.029700
     49 H16        206.5040   266.6080   306.2620 hc         1 WUX       0.029700
     50 H17        207.9760   266.4810   304.6540 hc         1 WUX       0.043200
     51 H18        208.5960   267.2880   303.2450 hc         1 WUX       0.043200
     52 H22        201.9840   271.3830   307.0930 hc         1 WUX       0.030367
     53 H23        200.8560   270.3640   306.2570 hc         1 WUX       0.030367
     54 H24        202.3520   269.6940   306.8150 hc         1 WUX       0.030367
     55 H25        199.6850   269.7990   302.1290 hc         1 WUX       0.035700
     56 H26        201.4000   271.2260   301.0230 hc         1 WUX       0.022700
     57 H27        200.4050   272.6450   301.2650 hc         1 WUX       0.022700
     58 H28        198.6250   271.6870   299.8360 hc         1 WUX       0.046700
     59 H29        199.5250   270.1930   299.6370 hc         1 WUX       0.046700
     60 H30        200.6980   272.8830   298.7660 hc         1 WUX       0.028200
     61 H31        199.5400   272.0390   297.7670 hc         1 WUX       0.028200
     62 H32        200.9980   270.0650   297.6100 hc         1 WUX       0.045700
     63 H33        202.6060   270.0720   299.4930 hc         1 WUX       0.043200
     64 H34        203.0540   271.7530   299.1930 hc         1 WUX       0.043200
     65 H35        204.0320   269.2910   297.7580 hc         1 WUX       0.031200
     66 H36        204.7500   270.8970   297.8050 hc         1 WUX       0.031200
     67 H37        209.8070   267.8080   305.4190 h1         1 WUX       0.016700
     68 H38        203.9110   271.0760   295.5620 hc         1 WUX       0.031200
     69 H39        202.7600   269.7650   295.8150 hc         1 WUX       0.031200
     70 H40        198.8100   275.1620   307.3610 hc         1 WUX       0.059367
     71 H41        197.9350   273.6780   306.7920 hc         1 WUX       0.059367
     72 H42        199.3020   273.4680   307.7890 hc         1 WUX       0.059367
     73 H43        202.4640   272.6870   296.8090 hc         1 WUX       0.043200
     74 H44        201.3340   271.7870   295.7870 hc         1 WUX       0.043200
     75 H45        207.9880   268.0040   307.0220 hc         1 WUX       0.049700
     76 H46        207.0970   270.3050   305.2530 hc         1 WUX       0.063700
     77 H47        205.5140   269.5100   307.7090 hc         1 WUX       0.033200
     78 H48        206.6260   270.8650   307.6630 hc         1 WUX       0.033200
     79 H49        205.3570   272.1370   306.1920 hc         1 WUX       0.040200
     80 H50        204.1660   271.3800   307.1530 hc         1 WUX       0.040200
     81 H51        203.7980   268.7130   305.7360 hc         1 WUX       0.051700
     82 H52        205.0690   268.9090   302.5740 ho         1 WUX       0.434000
     83 H54        209.8790   270.0840   304.9510 ho         1 WUX       0.437000
     84 C18        209.0620   269.8170   307.2310 c3         1 WUX      -0.093100
     85 C20        204.9610   271.3760   303.8060 c3         1 WUX      -0.086100
     86 C31        199.7930   274.0120   305.7740 c          1 WUX       0.608100
     87 H11        208.6430   269.9600   308.2340 hc         1 WUX       0.031367
     88 H12        210.0660   269.3970   307.3670 hc         1 WUX       0.031367
     89 H13        209.1700   270.8070   306.7720 hc         1 WUX       0.031367
     90 H19        205.0610   272.4540   303.9780 hc         1 WUX       0.036367
     91 H20        205.9730   271.0030   303.6510 hc         1 WUX       0.036367
     92 H21        204.4700   271.2690   302.8370 hc         1 WUX       0.036367
@<TRIPOS>BOND
     1     1     2 1   
     2     1    11 1   
     3     1    37 1   
     4     1    38 1   
     5     2    10 1   
     6     2    26 1   
     7     2    30 1   
     8     3     4 1   
     9     3    30 1   
    10     3    31 1   
    11     3    39 1   
    12     4     5 1   
    13     4    40 1   
    14     4    41 1   
    15     5     6 1   
    16     5     9 1   
    17     5    42 1   
    18     6     7 1   
    19     6    12 1   
    20     6    29 1   
    21     7     8 1   
    22     7    43 1   
    23     7    44 1   
    24     8     9 1   
    25     8    32 1   
    26     8    45 1   
    27     9    13 1   
    28     9    46 1   
    29    10    47 1   
    30    10    48 1   
    31    10    49 1   
    32    11    21 1   
    33    11    50 1   
    34    11    51 1   
    35    12    52 1   
    36    12    53 1   
    37    12    54 1   
    38    13    14 1   
    39    13    20 1   
    40    13    55 1   
    41    14    15 1   
    42    14    56 1   
    43    14    57 1   
    44    15    16 1   
    45    15    58 1   
    46    15    59 1   
    47    16    17 1   
    48    16    60 1   
    49    16    61 1   
    50    17    18 1   
    51    17    24 1   
    52    17    62 1   
    53    18    19 1   
    54    18    63 1   
    55    18    64 1   
    56    19    22 1   
    57    19    65 1   
    58    19    66 1   
    59    20    34 1   
    60    20    35 1   
    61    21    25 1   
    62    21    36 1   
    63    21    67 1   
    64    22    24 1   
    65    22    68 1   
    66    22    69 1   
    67    23    70 1   
    68    23    71 1   
    69    23    72 1   
    70    23    86 1   
    71    24    73 1   
    72    24    74 1   
    73    25    26 1   
    74    25    75 1   
    75    25    84 1   
    76    26    27 1   
    77    26    76 1   
    78    27    28 1   
    79    27    77 1   
    80    27    78 1   
    81    28    29 1   
    82    28    79 1   
    83    28    80 1   
    84    29    30 1   
    85    29    85 1   
    86    30    81 1   
    87    31    82 1   
    88    32    86 1   
    89    33    86 2   
    90    36    83 1   
    91    84    87 1   
    92    84    88 1   
    93    84    89 1   
    94    85    90 1   
    95    85    91 1   
    96    85    92 1   
@<TRIPOS>SUBSTRUCTURE
     1 WUX         1 TEMP              0 ****  ****    0 ROOT
