@<TRIPOS>MOLECULE
WUY
   26    26     1     0     0
SMALL
No Charge or Current Charge


@<TRIPOS>ATOM
      1 C10         17.6060   -80.9410    29.6700 ca         1 WUY      -0.137000
      2 N01         17.4390   -85.2560    20.9260 n8         1 WUY      -0.989200
      3 C02         17.4300   -84.9980    22.3850 c3         1 WUY       0.119800
      4 C03         16.0390   -84.5600    22.9110 c3         1 WUY       0.113000
      5 N04         16.0160   -84.3620    24.3660 ns         1 WUY      -0.523900
      6 C05         16.5850   -83.2940    25.0200 c          1 WUY       0.657100
      7 N06         16.4340   -83.3790    26.3950 ns         1 WUY      -0.168000
      8 C07         16.8480   -82.5290    27.4580 ca         1 WUY      -0.006000
      9 C08         17.5760   -81.3330    27.2660 ca         1 WUY      -0.148000
     10 C09         17.9520   -80.5450    28.3680 ca         1 WUY      -0.085000
     11 C11         16.8840   -82.1270    29.8710 ca         1 WUY      -0.085000
     12 C12         16.5080   -82.9150    28.7690 ca         1 WUY      -0.148000
     13 O13         17.1470   -82.3880    24.4220 o          1 WUY      -0.616100
     14 H1          17.8980   -80.3290    30.5210 ha         1 WUY       0.114000
     15 H2          18.3760   -85.5750    20.6460 hn         1 WUY       0.393000
     16 H3          16.8410   -86.0670    20.7200 hn         1 WUY       0.393000
     17 H5          17.7430   -85.9150    22.9050 h1         1 WUY       0.034700
     18 H6          18.1670   -84.2130    22.6040 h1         1 WUY       0.034700
     19 H7          15.7400   -83.6240    22.4190 h1         1 WUY       0.064700
     20 H8          15.2950   -85.3260    22.6540 h1         1 WUY       0.064700
     21 H9          15.5660   -85.0660    24.9390 hn         1 WUY       0.304500
     22 H10         15.9350   -84.2010    26.7070 hn         1 WUY       0.141000
     23 H11         17.8620   -80.9970    26.2750 ha         1 WUY       0.124000
     24 H12         18.5130   -79.6250    28.2120 ha         1 WUY       0.112000
     25 H13         16.6150   -82.4370    30.8780 ha         1 WUY       0.112000
     26 H14         15.9490   -83.8330    28.9380 ha         1 WUY       0.124000
@<TRIPOS>BOND
     1     1    10 ar  
     2     1    11 ar  
     3     1    14 1   
     4     2     3 1   
     5     2    15 1   
     6     2    16 1   
     7     3     4 1   
     8     3    17 1   
     9     3    18 1   
    10     4     5 1   
    11     4    19 1   
    12     4    20 1   
    13     5     6 1   
    14     5    21 1   
    15     6     7 1   
    16     6    13 2   
    17     7     8 1   
    18     7    22 1   
    19     8     9 ar  
    20     8    12 ar  
    21     9    10 ar  
    22     9    23 1   
    23    10    24 1   
    24    11    12 ar  
    25    11    25 1   
    26    12    26 1   
@<TRIPOS>SUBSTRUCTURE
     1 WUY         1 TEMP              0 ****  ****    0 ROOT
