@<TRIPOS>MOLECULE
WUY
   26    26     1     0     0
SMALL
bcc


@<TRIPOS>ATOM
      1 C10         17.6680   -81.0050    29.5830 ca         1 WUY      -0.155000
      2 N01         17.5900   -85.3480    21.1480 n8         1 WUY      -0.878800
      3 C02         17.3810   -85.2400    22.5840 c3         1 WUY       0.119800
      4 C03         16.2010   -84.3170    22.8660 c3         1 WUY       0.113000
      5 N04         15.9300   -84.1570    24.2740 ns         1 WUY      -0.590900
      6 C05         16.5670   -83.2330    25.0320 c          1 WUY       0.791100
      7 N06         16.2640   -83.3160    26.3720 ns         1 WUY      -0.494100
      8 C07         16.7660   -82.5160    27.3980 ca         1 WUY       0.086600
      9 C08         17.1880   -81.1960    27.2190 ca         1 WUY      -0.166000
     10 C09         17.6380   -80.4610    28.3070 ca         1 WUY      -0.103000
     11 C11         17.2350   -82.3120    29.7630 ca         1 WUY      -0.103000
     12 C12         16.7940   -83.0610    28.6850 ca         1 WUY      -0.166000
     13 O13         17.3210   -82.3910    24.5660 o          1 WUY      -0.616100
     14 H1          18.0160   -80.4200    30.4240 ha         1 WUY       0.132000
     15 H2          18.4290   -85.8850    20.9710 hn         1 WUY       0.337800
     16 H3          16.8350   -85.8830    20.7360 hn         1 WUY       0.337800
     17 H5          17.2060   -86.2030    23.0840 h1         1 WUY       0.034700
     18 H6          18.2790   -84.8120    23.0340 h1         1 WUY       0.034700
     19 H7          16.3840   -83.3410    22.4180 h1         1 WUY       0.064700
     20 H8          15.2990   -84.7170    22.4000 h1         1 WUY       0.064700
     21 H9          15.3760   -84.8690    24.7210 hn         1 WUY       0.304500
     22 H10         15.7640   -84.1360    26.6790 hn         1 WUY       0.307500
     23 H11         17.1620   -80.7360    26.2440 ha         1 WUY       0.142000
     24 H12         17.9620   -79.4400    28.1460 ha         1 WUY       0.130000
     25 H13         17.2420   -82.7580    30.7500 ha         1 WUY       0.130000
     26 H14         16.4680   -84.0830    28.8400 ha         1 WUY       0.142000
@<TRIPOS>BOND
     1     1    10 ar  
     2     1    11 ar  
     3     1    14 1   
     4     2     3 1   
     5     2    15 1   
     6     2    16 1   
     7     3     4 1   
     8     3    17 1   
     9     3    18 1   
    10     4     5 1   
    11     4    19 1   
    12     4    20 1   
    13     5     6 1   
    14     5    21 1   
    15     6     7 1   
    16     6    13 2   
    17     7     8 1   
    18     7    22 1   
    19     8     9 ar  
    20     8    12 ar  
    21     9    10 ar  
    22     9    23 1   
    23    10    24 1   
    24    11    12 ar  
    25    11    25 1   
    26    12    26 1   
@<TRIPOS>SUBSTRUCTURE
     1 WUY         1 TEMP              0 ****  ****    0 ROOT
