@<TRIPOS>MOLECULE
WUZ
   42    44     1     0     0
SMALL
No Charge or Current Charge


@<TRIPOS>ATOM
      1 O1         -14.1290   -19.8740   -30.7890 o          1 WUZ      -0.596100
      2 C1         -15.2890   -23.8180   -31.9480 ca         1 WUZ      -0.102500
      3 C2         -14.8610   -24.9100   -31.1720 ca         1 WUZ      -0.025000
      4 C3         -14.0710   -24.6670   -30.0330 ca         1 WUZ      -0.102500
      5 C4         -13.7100   -23.3560   -29.6750 ca         1 WUZ      -0.066000
      6 C5         -14.1360   -22.2530   -30.4540 ca         1 WUZ      -0.146600
      7 C6         -14.9300   -22.5060   -31.5950 ca         1 WUZ      -0.066000
      8 C10         -9.9200   -17.7350   -30.8170 ca         1 WUZ      -0.102000
      9 C11         -8.7250   -18.3010   -30.3480 ca         1 WUZ       0.131000
     10 C12         -8.7490   -19.2090   -29.2790 ca         1 WUZ      -0.102000
     11 C13         -9.9690   -19.5530   -28.6740 ca         1 WUZ       0.137000
     12 C14        -12.5170   -19.3420   -28.5020 c3         1 WUZ       0.157300
     13 C15        -16.5650   -26.6380   -31.7240 c          1 WUZ       0.572000
     14 C16        -16.5290   -28.1780   -31.8310 c5         1 WUZ      -0.146700
     15 C17        -15.0790   -28.4320   -32.3300 c5         1 WUZ      -0.169400
     16 C18        -14.2920   -27.2780   -31.6970 c          1 WUZ       0.573000
     17 C7         -13.7690   -20.8230   -30.1050 c          1 WUZ       0.615700
     18 C8         -11.1780   -18.9850   -29.1370 ca         1 WUZ      -0.102300
     19 C9         -11.1430   -18.0760   -30.2140 ca         1 WUZ      -0.064000
     20 N1         -13.0040   -20.6380   -28.9750 ns         1 WUZ      -0.502900
     21 N2         -15.2310   -26.2540   -31.5370 n          1 WUZ      -0.228000
     22 Cl2         -9.9530   -20.7070   -27.3400 cl         1 WUZ      -0.211000
     23 H1         -15.8940   -23.9810   -32.8370 ha         1 WUZ       0.126500
     24 H2         -13.7390   -25.4950   -29.4100 ha         1 WUZ       0.126500
     25 H3         -13.1000   -23.2200   -28.7860 ha         1 WUZ       0.128500
     26 H4         -15.2740   -21.6820   -32.2180 ha         1 WUZ       0.128500
     27 H5         -17.8330   -28.5760   -30.1090 hc         1 WUZ       0.049367
     28 H6         -16.7740   -29.9300   -30.5300 hc         1 WUZ       0.049367
     29 H7         -16.1130   -28.5150   -29.6910 hc         1 WUZ       0.049367
     30 H8          -9.8980   -17.0340   -31.6480 ha         1 WUZ       0.136000
     31 H9          -7.8230   -19.6490   -28.9210 ha         1 WUZ       0.144000
     32 H10        -12.4160   -19.3780   -27.4090 h1         1 WUZ       0.065200
     33 H11        -13.2610   -18.5670   -28.7300 h1         1 WUZ       0.065200
     34 H12        -17.3080   -28.5130   -32.5250 hc         1 WUZ       0.088700
     35 H13        -15.0530   -28.2840   -33.4160 hc         1 WUZ       0.088200
     36 H14        -14.6400   -29.4080   -32.0930 hc         1 WUZ       0.088200
     37 H15        -12.0660   -17.6350   -30.5880 ha         1 WUZ       0.132000
     38 H16        -12.7380   -21.4650   -28.4590 hn         1 WUZ       0.324500
     39 Cl1         -7.1950   -17.8750   -31.1040 cl         1 WUZ      -0.191000
     40 O2         -17.5240   -25.8890   -31.8510 o          1 WUZ      -0.486000
     41 O3         -13.1440   -27.2790   -31.2730 o          1 WUZ      -0.484000
     42 C01        -16.8270   -28.8360   -30.4600 c3         1 WUZ      -0.081100
@<TRIPOS>BOND
     1     1    17 2   
     2     2     3 ar  
     3     2     7 ar  
     4     2    23 1   
     5     3     4 ar  
     6     3    21 1   
     7     4     5 ar  
     8     4    24 1   
     9     5     6 ar  
    10     5    25 1   
    11     6     7 ar  
    12     6    17 1   
    13     7    26 1   
    14     8     9 ar  
    15     8    19 ar  
    16     8    30 1   
    17     9    10 ar  
    18     9    39 1   
    19    10    11 ar  
    20    10    31 1   
    21    11    18 ar  
    22    11    22 1   
    23    12    18 1   
    24    12    20 1   
    25    12    32 1   
    26    12    33 1   
    27    13    14 1   
    28    13    21 1   
    29    13    40 2   
    30    14    15 1   
    31    14    34 1   
    32    14    42 1   
    33    15    16 1   
    34    15    35 1   
    35    15    36 1   
    36    16    21 1   
    37    16    41 2   
    38    17    20 1   
    39    18    19 ar  
    40    19    37 1   
    41    20    38 1   
    42    27    42 1   
    43    28    42 1   
    44    29    42 1   
@<TRIPOS>SUBSTRUCTURE
     1 WUZ         1 TEMP              0 ****  ****    0 ROOT
