@<TRIPOS>MOLECULE
WUZ
   42    44     1     0     0
SMALL
abcg2


@<TRIPOS>ATOM
      1 O1         -13.7360   -19.8690   -31.2000 o          1 WUZ      -0.596100
      2 C1         -15.4420   -23.6800   -31.8350 ca         1 WUZ      -0.102500
      3 C2         -14.8410   -24.7270   -31.1510 ca         1 WUZ      -0.025000
      4 C3         -13.9020   -24.4760   -30.1630 ca         1 WUZ      -0.102500
      5 C4         -13.5590   -23.1690   -29.8610 ca         1 WUZ      -0.066000
      6 C5         -14.1530   -22.1090   -30.5410 ca         1 WUZ      -0.146600
      7 C6         -15.0900   -22.3750   -31.5350 ca         1 WUZ      -0.066000
      8 C10         -9.7380   -18.0290   -30.7040 ca         1 WUZ      -0.102000
      9 C11         -8.7620   -18.8720   -30.1990 ca         1 WUZ       0.131000
     10 C12         -9.0530   -19.7910   -29.2040 ca         1 WUZ      -0.102000
     11 C13        -10.3510   -19.8540   -28.7230 ca         1 WUZ       0.137000
     12 C14        -12.7800   -19.1250   -28.6960 c3         1 WUZ       0.157300
     13 C15        -16.3760   -26.6610   -31.1380 c          1 WUZ       0.572000
     14 C16        -16.3370   -28.1020   -31.5950 c5         1 WUZ      -0.146700
     15 C17        -15.0010   -28.2360   -32.3230 c5         1 WUZ      -0.169400
     16 C18        -14.3080   -26.9120   -32.1530 c          1 WUZ       0.573000
     17 C7         -13.7480   -20.6900   -30.2950 c          1 WUZ       0.615700
     18 C8         -11.3640   -19.0310   -29.2050 ca         1 WUZ      -0.102300
     19 C9         -11.0260   -18.1230   -30.2020 ca         1 WUZ      -0.064000
     20 N1         -13.3960   -20.3880   -29.0340 ns         1 WUZ      -0.502900
     21 N2         -15.1720   -26.0660   -31.4750 n          1 WUZ      -0.228000
     22 CL2        -10.6930   -21.0030   -27.4700 cl         1 WUZ      -0.211000
     23 H1         -16.1680   -23.8840   -32.6120 ha         1 WUZ       0.126500
     24 H2         -13.4340   -25.2970   -29.6360 ha         1 WUZ       0.126500
     25 H3         -12.7990   -22.9910   -29.1100 ha         1 WUZ       0.128500
     26 H4         -15.5480   -21.5610   -32.0800 ha         1 WUZ       0.128500
     27 H5         -17.4310   -28.8780   -29.8840 hc         1 WUZ       0.049367
     28 H6         -16.4610   -30.0770   -30.7380 hc         1 WUZ       0.049367
     29 H7         -15.6730   -28.9000   -29.6880 hc         1 WUZ       0.049367
     30 H8          -9.5040   -17.3140   -31.4810 ha         1 WUZ       0.136000
     31 H9          -8.2860   -20.4430   -28.8090 ha         1 WUZ       0.144000
     32 H10        -12.8050   -19.0280   -27.6100 h1         1 WUZ       0.065200
     33 H11        -13.3670   -18.3000   -29.1000 h1         1 WUZ       0.065200
     34 H12        -17.1750   -28.2560   -32.2790 hc         1 WUZ       0.088700
     35 H13        -15.1190   -28.4370   -33.3890 hc         1 WUZ       0.088200
     36 H14        -14.3710   -29.0290   -31.9160 hc         1 WUZ       0.088200
     37 H15        -11.7930   -17.4700   -30.5980 ha         1 WUZ       0.132000
     38 H16        -13.4950   -21.0750   -28.3060 hn         1 WUZ       0.324500
     39 CL1         -7.1480   -18.7850   -30.8130 cl         1 WUZ      -0.191000
     40 O2         -17.2670   -26.0980   -30.5570 o          1 WUZ      -0.486000
     41 O3         -13.2100   -26.5930   -32.5260 o          1 WUZ      -0.484000
     42 C01        -16.4860   -29.0420   -30.4010 c3         1 WUZ      -0.081100
@<TRIPOS>BOND
     1     1    17 2   
     2     2     3 ar  
     3     2     7 ar  
     4     2    23 1   
     5     3     4 ar  
     6     3    21 1   
     7     4     5 ar  
     8     4    24 1   
     9     5     6 ar  
    10     5    25 1   
    11     6     7 ar  
    12     6    17 1   
    13     7    26 1   
    14     8     9 ar  
    15     8    19 ar  
    16     8    30 1   
    17     9    10 ar  
    18     9    39 1   
    19    10    11 ar  
    20    10    31 1   
    21    11    18 ar  
    22    11    22 1   
    23    12    18 1   
    24    12    20 1   
    25    12    32 1   
    26    12    33 1   
    27    13    14 1   
    28    13    21 1   
    29    13    40 2   
    30    14    15 1   
    31    14    34 1   
    32    14    42 1   
    33    15    16 1   
    34    15    35 1   
    35    15    36 1   
    36    16    21 1   
    37    16    41 2   
    38    17    20 1   
    39    18    19 ar  
    40    19    37 1   
    41    20    38 1   
    42    27    42 1   
    43    28    42 1   
    44    29    42 1   
@<TRIPOS>SUBSTRUCTURE
     1 WUZ         1 TEMP              0 ****  ****    0 ROOT
