@<TRIPOS>MOLECULE
WV0
   17    18     1     0     0
SMALL
abcg2


@<TRIPOS>ATOM
      1 N1          39.3990    14.6640   -19.2030 ns         1 WV0      -0.150000
      2 C4          41.5350    15.2520   -18.0210 ca         1 WV0      -0.118000
      3 C5          42.1120    15.4250   -16.7600 ca         1 WV0      -0.112000
      4 C6          41.3400    15.2350   -15.6300 ca         1 WV0       0.134000
      5 C7          39.9980    14.8760   -15.6750 ca         1 WV0      -0.093000
      6 C8          39.4300    14.7060   -16.9230 ca         1 WV0      -0.117300
      7 C1          38.0380    14.3300   -17.3420 c5         1 WV0      -0.116100
      8 C2          38.1180    14.3250   -18.8700 c          1 WV0       0.561000
      9 C3          40.2000    14.8950   -18.0770 ca         1 WV0      -0.044000
     10 F1          41.9190    15.4090   -14.4100 f          1 WV0      -0.182000
     11 O2          37.2200    14.0710   -19.6560 o          1 WV0      -0.525000
     12 H3          39.7210    14.7270   -20.1580 hn         1 WV0       0.174000
     13 H4          42.1200    15.3940   -18.9190 ha         1 WV0       0.128000
     14 H5          43.1520    15.7050   -16.6590 ha         1 WV0       0.136000
     15 H6          39.4360    14.7390   -14.7600 ha         1 WV0       0.138000
     16 H1          37.2800    15.0460   -17.0190 hc         1 WV0       0.093700
     17 H2          37.7280    13.3440   -16.9890 hc         1 WV0       0.093700
@<TRIPOS>BOND
     1     1     8 1   
     2     1     9 1   
     3     1    12 1   
     4     2     3 ar  
     5     2     9 ar  
     6     2    13 1   
     7     3     4 ar  
     8     3    14 1   
     9     4     5 ar  
    10     4    10 1   
    11     5     6 ar  
    12     5    15 1   
    13     6     7 1   
    14     6     9 ar  
    15     7     8 1   
    16     7    16 1   
    17     7    17 1   
    18     8    11 2   
@<TRIPOS>SUBSTRUCTURE
     1 WV0         1 TEMP              0 ****  ****    0 ROOT
