@<TRIPOS>MOLECULE
WV0
   17    18     1     0     0
SMALL
No Charge or Current Charge


@<TRIPOS>ATOM
      1 N1          39.3810    14.6580   -19.1710 ns         1 WV0      -0.150000
      2 C4          41.5560    15.2560   -18.0310 ca         1 WV0      -0.118000
      3 C5          42.1400    15.4320   -16.7580 ca         1 WV0      -0.112000
      4 C6          41.3660    15.2440   -15.5880 ca         1 WV0       0.134000
      5 C7          40.0050    14.8800   -15.6690 ca         1 WV0      -0.093000
      6 C8          39.4420    14.7100   -16.9430 ca         1 WV0      -0.117300
      7 C1          38.0200    14.3240   -17.3380 c5         1 WV0      -0.116100
      8 C2          38.0720    14.3130   -18.8990 c          1 WV0       0.561000
      9 C3          40.2050    14.8950   -18.0770 ca         1 WV0      -0.044000
     10 F1          41.9390    15.4160   -14.3760 f          1 WV0      -0.182000
     11 O2          37.1960    14.0660   -19.7180 o          1 WV0      -0.525000
     12 H3          39.7240    14.7340   -20.1200 hn         1 WV0       0.174000
     13 H4          42.1350    15.3950   -18.9420 ha         1 WV0       0.128000
     14 H5          43.1870    15.7120   -16.6730 ha         1 WV0       0.136000
     15 H6          39.4140    14.7370   -14.7690 ha         1 WV0       0.138000
     16 H1          37.2550    15.0360   -17.0130 hc         1 WV0       0.093700
     17 H2          37.7090    13.3360   -16.9860 hc         1 WV0       0.093700
@<TRIPOS>BOND
     1     1     8 1   
     2     1     9 1   
     3     1    12 1   
     4     2     3 ar  
     5     2     9 ar  
     6     2    13 1   
     7     3     4 ar  
     8     3    14 1   
     9     4     5 ar  
    10     4    10 1   
    11     5     6 ar  
    12     5    15 1   
    13     6     7 1   
    14     6     9 ar  
    15     7     8 1   
    16     7    16 1   
    17     7    17 1   
    18     8    11 2   
@<TRIPOS>SUBSTRUCTURE
     1 WV0         1 TEMP              0 ****  ****    0 ROOT
