@<TRIPOS>MOLECULE
WV1
   31    32     1     0     0
SMALL
bcc


@<TRIPOS>ATOM
      1 C4           3.2240   -12.2600   -29.9530 ca         1 WV1      -0.163000
      2 C5           4.5270   -12.2900   -29.4850 ca         1 WV1      -0.094000
      3 C6           5.0370   -13.4070   -28.8340 ca         1 WV1      -0.092300
      4 C11         -2.5700   -13.7420   -30.0440 cx         1 WV1      -0.095900
      5 C7           6.4640   -13.4380   -28.3340 c3         1 WV1       0.205800
      6 C8           6.5320   -13.7270   -26.8340 c3         1 WV1      -0.126100
      7 C9          -0.0150   -13.9870   -29.9800 c          1 WV1       0.707100
      8 C10         -1.2380   -13.5930   -30.7300 cx         1 WV1      -0.250700
      9 C12         -2.1990   -14.6830   -31.1280 cx         1 WV1      -0.095900
     10 N1           7.2450   -14.3640   -29.1530 n8         1 WV1      -0.872800
     11 C3           2.3830   -13.3600   -29.7890 ca         1 WV1       0.071600
     12 C1           4.1910   -14.5020   -28.6810 ca         1 WV1      -0.094000
     13 C2           2.8850   -14.4950   -29.1490 ca         1 WV1      -0.163000
     14 O1          -0.0170   -14.8810   -29.1500 o          1 WV1      -0.588100
     15 H3           2.8550   -11.3700   -30.4500 ha         1 WV1       0.143000
     16 H4           5.1570   -11.4190   -29.6280 ha         1 WV1       0.128500
     17 H14         -2.5640   -14.1090   -29.0260 hc         1 WV1       0.082700
     18 H5           6.8850   -12.4420   -28.5000 h1         1 WV1       0.060700
     19 H10          7.5670   -13.7020   -26.4880 hc         1 WV1       0.039033
     20 H8           5.9710   -12.9900   -26.2570 hc         1 WV1       0.039033
     21 H9           6.1280   -14.7140   -26.6000 hc         1 WV1       0.039033
     22 H12         -1.1380   -12.7620   -31.4190 hc         1 WV1       0.083700
     23 H15         -2.6760   -14.5800   -32.0940 hc         1 WV1       0.082700
     24 H16         -1.9360   -15.6980   -30.8580 hc         1 WV1       0.082700
     25 H7           8.2050   -14.3600   -28.8260 hn         1 WV1       0.334800
     26 H6           6.9140   -15.3100   -28.9970 hn         1 WV1       0.334800
     27 H1           4.5470   -15.3990   -28.1870 ha         1 WV1       0.128500
     28 H2           2.2750   -15.3730   -29.0170 ha         1 WV1       0.143000
     29 N2           1.0870   -13.2650   -30.3110 ns         1 WV1      -0.471100
     30 H13         -3.3090   -12.9790   -30.2470 hc         1 WV1       0.082700
     31 H11          0.9420   -12.5030   -30.9570 hn         1 WV1       0.316500
@<TRIPOS>BOND
     1     1     2 ar  
     2     1    11 ar  
     3     1    15 1   
     4     2     3 ar  
     5     2    16 1   
     6     3     5 1   
     7     3    12 ar  
     8     4     8 1   
     9     4     9 1   
    10     4    17 1   
    11     4    30 1   
    12     5     6 1   
    13     5    10 1   
    14     5    18 1   
    15     6    19 1   
    16     6    20 1   
    17     6    21 1   
    18     7     8 1   
    19     7    14 2   
    20     7    29 1   
    21     8     9 1   
    22     8    22 1   
    23     9    23 1   
    24     9    24 1   
    25    10    25 1   
    26    10    26 1   
    27    11    13 ar  
    28    11    29 1   
    29    12    13 ar  
    30    12    27 1   
    31    13    28 1   
    32    29    31 1   
@<TRIPOS>SUBSTRUCTURE
     1 WV1         1 TEMP              0 ****  ****    0 ROOT
