@<TRIPOS>MOLECULE
WV1
   31    32     1     0     0
SMALL
No Charge or Current Charge


@<TRIPOS>ATOM
      1 C4           3.0260   -12.3110   -29.7540 ca         1 WV1      -0.145000
      2 C5           4.3320   -12.2420   -29.2400 ca         1 WV1      -0.076000
      3 C6           4.9730   -13.4000   -28.7580 ca         1 WV1      -0.092300
      4 C11         -2.0590   -13.0420   -30.3470 cx         1 WV1      -0.095900
      5 C7           6.3930   -13.3060   -28.1960 c3         1 WV1       0.205800
      6 C8           6.5180   -13.8890   -26.7750 c3         1 WV1      -0.126100
      7 C9           0.0770   -14.5280   -30.5330 c          1 WV1       0.640100
      8 C10         -1.2170   -14.0270   -31.1360 cx         1 WV1      -0.250700
      9 C12         -2.5330   -14.4660   -30.5230 cx         1 WV1      -0.095900
     10 N1           7.3530   -13.9650   -29.0940 n8         1 WV1      -0.983200
     11 C3           2.3330   -13.5340   -29.7990 ca         1 WV1      -0.021000
     12 C1           4.2810   -14.6280   -28.8050 ca         1 WV1      -0.076000
     13 C2           2.9740   -14.6960   -29.3190 ca         1 WV1      -0.145000
     14 O1           0.2460   -15.7140   -30.2740 o          1 WV1      -0.588100
     15 H3           2.5500   -11.4030   -30.1190 ha         1 WV1       0.125000
     16 H4           4.8460   -11.2840   -29.2170 ha         1 WV1       0.110500
     17 H14         -1.7200   -12.7450   -29.3570 hc         1 WV1       0.082700
     18 H5           6.6730   -12.2440   -28.1370 h1         1 WV1       0.060700
     19 H10          7.5240   -13.7150   -26.3720 hc         1 WV1       0.039033
     20 H8           5.7990   -13.4050   -26.1030 hc         1 WV1       0.039033
     21 H9           6.3260   -14.9680   -26.7610 hc         1 WV1       0.039033
     22 H12         -1.1980   -13.9030   -32.2160 hc         1 WV1       0.083700
     23 H15         -3.3730   -14.6410   -31.1930 hc         1 WV1       0.082700
     24 H16         -2.5060   -15.1180   -29.6530 hc         1 WV1       0.082700
     25 H7           8.2740   -13.9740   -28.6420 hn         1 WV1       0.390000
     26 H6           7.1050   -14.9570   -29.1630 hn         1 WV1       0.390000
     27 H1           4.7560   -15.5380   -28.4450 ha         1 WV1       0.110500
     28 H2           2.4810   -15.6630   -29.3330 ha         1 WV1       0.125000
     29 N2           1.0140   -13.5250   -30.3310 ns         1 WV1      -0.145000
     30 H13         -2.5820   -12.2630   -30.8980 hc         1 WV1       0.082700
     31 H11          0.6940   -12.6080   -30.6150 hn         1 WV1       0.150000
@<TRIPOS>BOND
     1     1     2 ar  
     2     1    11 ar  
     3     1    15 1   
     4     2     3 ar  
     5     2    16 1   
     6     3     5 1   
     7     3    12 ar  
     8     4     8 1   
     9     4     9 1   
    10     4    17 1   
    11     4    30 1   
    12     5     6 1   
    13     5    10 1   
    14     5    18 1   
    15     6    19 1   
    16     6    20 1   
    17     6    21 1   
    18     7     8 1   
    19     7    14 2   
    20     7    29 1   
    21     8     9 1   
    22     8    22 1   
    23     9    23 1   
    24     9    24 1   
    25    10    25 1   
    26    10    26 1   
    27    11    13 ar  
    28    11    29 1   
    29    12    13 ar  
    30    12    27 1   
    31    13    28 1   
    32    29    31 1   
@<TRIPOS>SUBSTRUCTURE
     1 WV1         1 TEMP              0 ****  ****    0 ROOT
