@<TRIPOS>MOLECULE
WV4
   26    26     1     0     0
SMALL
No Charge or Current Charge


@<TRIPOS>ATOM
      1 C4           2.7040    64.5540    30.5120 ca         1 WV4       0.033000
      2 C5           1.8550    64.4190    29.4000 ca         1 WV4      -0.210000
      3 C6           2.2870    64.8020    28.1170 ca         1 WV4       0.359000
      4 C7           5.9400    63.6630    31.8140 c3         1 WV4      -0.336100
      5 C8           0.0330    64.2370    26.9930 c3         1 WV4       0.218800
      6 C9          -0.5140    64.2590    25.5580 c3         1 WV4      -0.111100
      7 N1           1.4380    64.6660    27.0060 nu         1 WV4      -0.952200
      8 C3           4.0020    65.0780    30.3470 ca         1 WV4      -0.328500
      9 C1           3.5920    65.3240    27.9570 ca         1 WV4       0.057000
     10 C2           4.4460    65.4610    29.0640 ca         1 WV4      -0.004000
     11 F1           4.0380    65.6990    26.7320 f          1 WV4      -0.186000
     12 O1           4.2790    65.3170    32.9890 o          1 WV4      -0.529500
     13 O2           6.1130    66.2570    31.4690 o          1 WV4      -0.529500
     14 S1           5.0950    65.2420    31.7700 sy         1 WV4       1.074500
     15 H2           2.3480    64.2480    31.4950 ha         1 WV4       0.139000
     16 H3           0.8600    64.0130    29.5470 ha         1 WV4       0.123000
     17 H6           6.6360    63.6710    32.6590 h1         1 WV4       0.100367
     18 H4           5.1890    62.8770    31.9370 h1         1 WV4       0.100367
     19 H5           6.4790    63.5380    30.8690 h1         1 WV4       0.100367
     20 H9          -0.5730    64.9070    27.6200 h1         1 WV4       0.045700
     21 H8          -0.0570    63.2190    27.3970 h1         1 WV4       0.045700
     22 H11         -1.5620    63.9380    25.5500 hc         1 WV4       0.047700
     23 H12         -0.4640    65.2700    25.1370 hc         1 WV4       0.047700
     24 H10          0.0560    63.5800    24.9130 hc         1 WV4       0.047700
     25 H7           1.8420    64.9700    26.1180 hn         1 WV4       0.500000
     26 H1           5.4460    65.8630    28.9150 ha         1 WV4       0.147000
@<TRIPOS>BOND
     1     1     2 ar  
     2     1     8 ar  
     3     1    15 1   
     4     2     3 ar  
     5     2    16 1   
     6     3     7 1   
     7     3     9 ar  
     8     4    14 1   
     9     4    17 1   
    10     4    18 1   
    11     4    19 1   
    12     5     6 1   
    13     5     7 1   
    14     5    20 1   
    15     5    21 1   
    16     6    22 1   
    17     6    23 1   
    18     6    24 1   
    19     7    25 1   
    20     8    10 ar  
    21     8    14 1   
    22     9    10 ar  
    23     9    11 1   
    24    10    26 1   
    25    12    14 2   
    26    13    14 2   
@<TRIPOS>SUBSTRUCTURE
     1 WV4         1 TEMP              0 ****  ****    0 ROOT
