@<TRIPOS>MOLECULE
WV4
   26    26     1     0     0
SMALL
bcc


@<TRIPOS>ATOM
      1 C4           2.6670    64.4710    30.4530 ca         1 WV4       0.015000
      2 C5           1.8520    64.3220    29.3450 ca         1 WV4      -0.228000
      3 C6           2.2980    64.6700    28.0610 ca         1 WV4       0.220600
      4 C7           6.0060    63.7870    31.8110 c3         1 WV4      -0.225300
      5 C8           0.1070    64.2850    27.0210 c3         1 WV4       0.218800
      6 C9          -0.5120    64.3760    25.6400 c3         1 WV4      -0.111100
      7 N1           1.5280    64.5550    26.9570 nu         1 WV4      -0.758600
      8 C3           3.9520    64.9710    30.3100 ca         1 WV4      -0.328500
      9 C1           3.6200    65.1480    27.9660 ca         1 WV4       0.021900
     10 C2           4.4360    65.3170    29.0480 ca         1 WV4      -0.022000
     11 F1           4.0700    65.4770    26.7420 f          1 WV4      -0.150900
     12 O1           4.1040    65.2350    32.9070 o          1 WV4      -0.600300
     13 O2           5.8150    66.3910    31.4700 o          1 WV4      -0.600300
     14 S1           4.9640    65.2290    31.7250 sy         1 WV4       1.105300
     15 H2           2.2840    64.2020    31.4280 ha         1 WV4       0.157000
     16 H3           0.8490    63.9430    29.4840 ha         1 WV4       0.141000
     17 H6           6.6640    63.9050    32.6720 h1         1 WV4       0.100367
     18 H4           5.3850    62.9030    31.9320 h1         1 WV4       0.100367
     19 H5           6.5960    63.7120    30.9000 h1         1 WV4       0.100367
     20 H9          -0.3880    64.9920    27.6960 h1         1 WV4       0.045700
     21 H8          -0.0600    63.2860    27.4330 h1         1 WV4       0.045700
     22 H11         -1.5790    64.1670    25.6970 hc         1 WV4       0.047700
     23 H12         -0.3890    65.3750    25.2190 hc         1 WV4       0.047700
     24 H10         -0.0620    63.6570    24.9560 hc         1 WV4       0.047700
     25 H7           1.8660    64.9780    26.1080 hn         1 WV4       0.444800
     26 H1           5.4330    65.7160    28.9070 ha         1 WV4       0.165000
@<TRIPOS>BOND
     1     1     2 ar  
     2     1     8 ar  
     3     1    15 1   
     4     2     3 ar  
     5     2    16 1   
     6     3     7 1   
     7     3     9 ar  
     8     4    14 1   
     9     4    17 1   
    10     4    18 1   
    11     4    19 1   
    12     5     6 1   
    13     5     7 1   
    14     5    20 1   
    15     5    21 1   
    16     6    22 1   
    17     6    23 1   
    18     6    24 1   
    19     7    25 1   
    20     8    10 ar  
    21     8    14 1   
    22     9    10 ar  
    23     9    11 1   
    24    10    26 1   
    25    12    14 2   
    26    13    14 2   
@<TRIPOS>SUBSTRUCTURE
     1 WV4         1 TEMP              0 ****  ****    0 ROOT
