@<TRIPOS>MOLECULE
WV5
   55    56     1     0     0
SMALL
No Charge or Current Charge


@<TRIPOS>ATOM
      1 N1         -35.6800   -31.4230   -68.5050 n3         1 WV5      -0.722600
      2 C4         -36.0920   -28.9310   -69.1160 c3         1 WV5       0.155600
      3 C5         -36.9170   -31.4730   -67.6730 c3         1 WV5       0.176800
      4 C6         -36.7540   -31.0190   -66.2000 c3         1 WV5      -0.115400
      5 C7         -38.0800   -31.0730   -65.4110 c3         1 WV5      -0.075400
      6 C8         -37.9220   -30.6240   -63.9370 c3         1 WV5      -0.074400
      7 C10        -40.0240   -29.2960   -63.0850 c3         1 WV5      -0.074400
      8 C13        -41.9220   -27.0600   -65.6810 cc         1 WV5       0.137300
      9 C15        -43.0290   -26.5160   -67.5400 cd         1 WV5      -0.179000
     10 C17        -34.6710   -32.4430   -68.0830 c6         1 WV5       0.135800
     11 C1         -32.8070   -31.1560   -69.2280 c6         1 WV5       0.176300
     12 O1         -31.7230   -31.1700   -70.1790 oh         1 WV5      -0.649000
     13 C2         -33.8620   -30.1100   -69.6910 c6         1 WV5       0.132300
     14 O2         -33.2140   -28.8240   -69.8650 oh         1 WV5      -0.738000
     15 C3         -35.0670   -30.0500   -68.6820 c6         1 WV5       0.172500
     16 O3         -36.6560   -29.1370   -70.4260 oh         1 WV5      -0.657000
     17 O4         -41.0490   -26.3790   -66.4990 os         1 WV5      -0.263000
     18 O5         -32.5240   -33.5420   -68.5870 oh         1 WV5      -0.708000
     19 C9         -39.2370   -30.6320   -63.1140 c3         1 WV5      -0.070400
     20 C11        -40.5280   -28.7900   -64.4550 c3         1 WV5      -0.074400
     21 C12        -41.4450   -27.5530   -64.3430 c3         1 WV5      -0.106700
     22 C14        -43.1410   -27.1580   -66.2900 cd         1 WV5      -0.181000
     23 C16        -41.7450   -26.0520   -67.6420 cc         1 WV5       0.120900
     24 C18        -33.4710   -32.5580   -69.0670 c6         1 WV5       0.171300
     25 H2         -35.5790   -27.9620   -69.0840 h1         1 WV5       0.028700
     26 H3         -36.8910   -28.8690   -68.3670 h1         1 WV5       0.028700
     27 H4         -37.7060   -30.8680   -68.1380 h1         1 WV5       0.056700
     28 H5         -37.3030   -32.5020   -67.6660 h1         1 WV5       0.056700
     29 H6         -36.0160   -31.6550   -65.6970 hc         1 WV5       0.039700
     30 H7         -36.3700   -29.9930   -66.1690 hc         1 WV5       0.039700
     31 H8         -38.8200   -30.4500   -65.9220 hc         1 WV5       0.040200
     32 H9         -38.4660   -32.1000   -65.4300 hc         1 WV5       0.040200
     33 H10        -37.2100   -31.3030   -63.4520 hc         1 WV5       0.038200
     34 H11        -37.4700   -29.6250   -63.8970 hc         1 WV5       0.038200
     35 H12        -39.3960   -28.5210   -62.6270 hc         1 WV5       0.037200
     36 H13        -40.8870   -29.4270   -62.4200 hc         1 WV5       0.037200
     37 H14        -43.8070   -26.4060   -68.2880 ha         1 WV5       0.141000
     38 H15        -35.1510   -33.4300   -68.0050 h1         1 WV5       0.040700
     39 H16        -34.2790   -32.1970   -67.0850 h1         1 WV5       0.040700
     40 H17        -32.4310   -30.8420   -68.2430 h1         1 WV5       0.053700
     41 H18        -31.6130   -30.2230   -70.4230 ho         1 WV5       0.452000
     42 H19        -34.2640   -30.4540   -70.6570 h1         1 WV5       0.073700
     43 H20        -33.8190   -28.2730   -70.4150 ho         1 WV5       0.510000
     44 H21        -34.6560   -29.7260   -67.7140 h1         1 WV5       0.039700
     45 H22        -37.3750   -28.4760   -70.5360 ho         1 WV5       0.438000
     46 H23        -32.9050   -34.4280   -68.7900 ho         1 WV5       0.500000
     47 H24        -39.8910   -31.4380   -63.4680 hc         1 WV5       0.039700
     48 H25        -38.9830   -30.8840   -62.0770 hc         1 WV5       0.039700
     49 H26        -41.0710   -29.5960   -64.9650 hc         1 WV5       0.047700
     50 H27        -39.6690   -28.5260   -65.0820 hc         1 WV5       0.047700
     51 H28        -40.9070   -26.7470   -63.8310 hc         1 WV5       0.057200
     52 H29        -42.3110   -27.7990   -63.7170 hc         1 WV5       0.057200
     53 H30        -44.0240   -27.6410   -65.8830 ha         1 WV5       0.140000
     54 H31        -41.2260   -25.5070   -68.4190 h4         1 WV5       0.048100
     55 H32        -33.8640   -32.8630   -70.0490 h1         1 WV5       0.058700
@<TRIPOS>BOND
     1     1     3 1   
     2     1    10 1   
     3     1    15 1   
     4     2    15 1   
     5     2    16 1   
     6     2    25 1   
     7     2    26 1   
     8     3     4 1   
     9     3    27 1   
    10     3    28 1   
    11     4     5 1   
    12     4    29 1   
    13     4    30 1   
    14     5     6 1   
    15     5    31 1   
    16     5    32 1   
    17     6    19 1   
    18     6    33 1   
    19     6    34 1   
    20     7    19 1   
    21     7    20 1   
    22     7    35 1   
    23     7    36 1   
    24     8    17 1   
    25     8    21 1   
    26     8    22 2   
    27     9    22 1   
    28     9    23 2   
    29     9    37 1   
    30    10    24 1   
    31    10    38 1   
    32    10    39 1   
    33    11    12 1   
    34    11    13 1   
    35    11    24 1   
    36    11    40 1   
    37    12    41 1   
    38    13    14 1   
    39    13    15 1   
    40    13    42 1   
    41    14    43 1   
    42    15    44 1   
    43    16    45 1   
    44    17    23 1   
    45    18    24 1   
    46    18    46 1   
    47    19    47 1   
    48    19    48 1   
    49    20    21 1   
    50    20    49 1   
    51    20    50 1   
    52    21    51 1   
    53    21    52 1   
    54    22    53 1   
    55    23    54 1   
    56    24    55 1   
@<TRIPOS>SUBSTRUCTURE
     1 WV5         1 TEMP              0 ****  ****    0 ROOT
