@<TRIPOS>MOLECULE
WV5
   55    56     1     0     0
SMALL
abcg2


@<TRIPOS>ATOM
      1 N1         -35.6760   -31.2850   -68.4050 n3         1 WV5      -0.722600
      2 C4         -35.9900   -28.8320   -68.7550 c3         1 WV5       0.155600
      3 C5         -36.8750   -31.3280   -67.5660 c3         1 WV5       0.176800
      4 C6         -36.6990   -30.9790   -66.0840 c3         1 WV5      -0.115400
      5 C7         -38.0250   -31.0530   -65.3310 c3         1 WV5      -0.075400
      6 C8         -37.9180   -30.5900   -63.8770 c3         1 WV5      -0.074400
      7 C10        -40.0520   -29.3160   -63.1320 c3         1 WV5      -0.074400
      8 C13        -41.8960   -27.1960   -65.7990 cc         1 WV5       0.137300
      9 C15        -42.9050   -26.6500   -67.7310 cd         1 WV5      -0.179000
     10 C17        -34.7150   -32.3270   -68.0730 c6         1 WV5       0.135800
     11 C1         -32.9860   -31.1890   -69.4440 c6         1 WV5       0.176300
     12 O1         -32.1290   -31.3160   -70.5760 oh         1 WV5      -0.649000
     13 C2         -33.9920   -30.0680   -69.6640 c6         1 WV5       0.132300
     14 O2         -33.2180   -28.8680   -69.7760 oh         1 WV5      -0.738000
     15 C3         -35.0200   -29.9800   -68.5240 c6         1 WV5       0.172500
     16 O3         -36.7280   -29.0470   -69.9610 oh         1 WV5      -0.657000
     17 O4         -40.9450   -26.7270   -66.6700 os         1 WV5      -0.263000
     18 O5         -32.7060   -33.4730   -68.8300 oh         1 WV5      -0.708000
     19 C9         -39.2380   -30.6140   -63.0900 c3         1 WV5      -0.070400
     20 C11        -40.5300   -28.8870   -64.5170 c3         1 WV5      -0.074400
     21 C12        -41.4290   -27.6430   -64.4630 c3         1 WV5      -0.106700
     22 C14        -43.1110   -27.1670   -66.4080 cd         1 WV5      -0.181000
     23 C16        -41.5780   -26.4010   -67.8380 cc         1 WV5       0.120900
     24 C18        -33.6910   -32.5020   -69.1910 c6         1 WV5       0.171300
     25 H2         -35.4090   -27.9080   -68.8190 h1         1 WV5       0.028700
     26 H3         -36.6670   -28.7330   -67.9040 h1         1 WV5       0.028700
     27 H4         -37.6220   -30.6630   -68.0030 h1         1 WV5       0.056700
     28 H5         -37.2800   -32.3410   -67.6480 h1         1 WV5       0.056700
     29 H6         -35.9740   -31.6550   -65.6220 hc         1 WV5       0.039700
     30 H7         -36.2900   -29.9690   -65.9880 hc         1 WV5       0.039700
     31 H8         -38.7670   -30.4530   -65.8630 hc         1 WV5       0.040200
     32 H9         -38.3970   -32.0840   -65.3500 hc         1 WV5       0.040200
     33 H10        -37.1870   -31.2290   -63.3720 hc         1 WV5       0.038200
     34 H11        -37.5010   -29.5760   -63.8510 hc         1 WV5       0.038200
     35 H12        -39.4520   -28.5080   -62.6990 hc         1 WV5       0.037200
     36 H13        -40.9250   -29.4320   -62.4810 hc         1 WV5       0.037200
     37 H14        -43.6490   -26.4890   -68.4940 ha         1 WV5       0.141000
     38 H15        -35.2530   -33.2670   -67.9370 h1         1 WV5       0.040700
     39 H16        -34.1690   -32.1210   -67.1380 h1         1 WV5       0.040700
     40 H17        -32.3900   -30.9440   -68.5540 h1         1 WV5       0.053700
     41 H18        -31.8180   -30.4240   -70.7850 ho         1 WV5       0.452000
     42 H19        -34.5230   -30.2530   -70.6000 h1         1 WV5       0.073700
     43 H20        -33.6750   -28.2520   -70.3600 ho         1 WV5       0.510000
     44 H21        -34.4660   -29.7230   -67.6030 h1         1 WV5       0.039700
     45 H22        -37.2890   -28.2760   -70.1090 ho         1 WV5       0.438000
     46 H23        -33.1400   -34.3340   -68.7690 ho         1 WV5       0.500000
     47 H24        -39.8580   -31.4440   -63.4480 hc         1 WV5       0.039700
     48 H25        -39.0200   -30.8310   -62.0400 hc         1 WV5       0.039700
     49 H26        -41.0810   -29.7050   -64.9910 hc         1 WV5       0.047700
     50 H27        -39.6730   -28.6720   -65.1590 hc         1 WV5       0.047700
     51 H28        -40.8840   -26.8280   -63.9730 hc         1 WV5       0.057200
     52 H29        -42.3100   -27.8490   -63.8520 hc         1 WV5       0.057200
     53 H30        -44.0450   -27.4770   -65.9660 ha         1 WV5       0.140000
     54 H31        -40.9520   -26.0130   -68.6230 h4         1 WV5       0.048100
     55 H32        -34.2030   -32.8110   -70.1090 h1         1 WV5       0.058700
@<TRIPOS>BOND
     1     1     3 1   
     2     1    10 1   
     3     1    15 1   
     4     2    15 1   
     5     2    16 1   
     6     2    25 1   
     7     2    26 1   
     8     3     4 1   
     9     3    27 1   
    10     3    28 1   
    11     4     5 1   
    12     4    29 1   
    13     4    30 1   
    14     5     6 1   
    15     5    31 1   
    16     5    32 1   
    17     6    19 1   
    18     6    33 1   
    19     6    34 1   
    20     7    19 1   
    21     7    20 1   
    22     7    35 1   
    23     7    36 1   
    24     8    17 1   
    25     8    21 1   
    26     8    22 2   
    27     9    22 1   
    28     9    23 2   
    29     9    37 1   
    30    10    24 1   
    31    10    38 1   
    32    10    39 1   
    33    11    12 1   
    34    11    13 1   
    35    11    24 1   
    36    11    40 1   
    37    12    41 1   
    38    13    14 1   
    39    13    15 1   
    40    13    42 1   
    41    14    43 1   
    42    15    44 1   
    43    16    45 1   
    44    17    23 1   
    45    18    24 1   
    46    18    46 1   
    47    19    47 1   
    48    19    48 1   
    49    20    21 1   
    50    20    49 1   
    51    20    50 1   
    52    21    51 1   
    53    21    52 1   
    54    22    53 1   
    55    23    54 1   
    56    24    55 1   
@<TRIPOS>SUBSTRUCTURE
     1 WV5         1 TEMP              0 ****  ****    0 ROOT
