@<TRIPOS>MOLECULE
WV7
   27    28     1     0     0
SMALL
abcg2


@<TRIPOS>ATOM
      1 OAA         -2.5570    -1.7660    -0.6320 o          1 WV7      -0.548100
      2 FAC         -3.8860     0.3700    -1.0810 f          1 WV7      -0.103000
      3 FAD         -2.0000     1.3910    -1.1660 f          1 WV7      -0.103000
      4 FAE         -3.0630     1.2160     0.7120 f          1 WV7      -0.103000
      5 CAF          3.2980     1.5690     0.2380 ca         1 WV7      -0.142000
      6 CAG          1.9830     1.5380     0.6610 ca         1 WV7      -0.062000
      7 CAH          3.1300    -0.7570    -0.3430 ca         1 WV7      -0.205000
      8 CAI          1.0160    -2.0630    -0.0100 c6         1 WV7      -0.058100
      9 CAJ         -0.2360    -2.0050     0.8480 c6         1 WV7       0.091000
     10 CAK         -0.2040     0.3930     1.0920 c6         1 WV7       0.156300
     11 CAL         -2.0480    -0.7690    -0.1560 c          1 WV7       0.556100
     12 CAM          3.8810     0.4090    -0.2710 ca         1 WV7       0.150100
     13 CAN          1.2220     0.3730     0.5940 ca         1 WV7      -0.149300
     14 CAO          1.8070    -0.7850     0.0880 ca         1 WV7      -0.021300
     15 NAP         -0.9420    -0.7560     0.5940 n          1 WV7      -0.386800
     16 CAQ         -2.7560     0.5770    -0.4220 c3         1 WV7       0.222000
     17 HOAB         5.4660    -0.3850    -0.9890 ho         1 WV7       0.467000
     18 HAF          3.8730     2.4850     0.2950 ha         1 WV7       0.133000
     19 HAG          1.5360     2.4450     1.0500 ha         1 WV7       0.117000
     20 HAH          3.5760    -1.6650    -0.7370 ha         1 WV7       0.115000
     21 HAI          1.6280    -2.9120     0.3020 hc         1 WV7       0.065200
     22 HAIA         0.7390    -2.2480    -1.0520 hc         1 WV7       0.065200
     23 HAJ         -0.8890    -2.8500     0.6530 h1         1 WV7       0.069700
     24 HAJA         0.0250    -2.0260     1.9080 h1         1 WV7       0.069700
     25 HAK         -0.2210     0.3560     2.1860 h1         1 WV7       0.066200
     26 HAKA        -0.6640     1.3350     0.8150 h1         1 WV7       0.066200
     27 OAB          5.1660     0.4750    -0.6750 oh         1 WV7      -0.530100
@<TRIPOS>BOND
     1     1    11 2   
     2     2    16 1   
     3     3    16 1   
     4     4    16 1   
     5     5     6 ar  
     6     5    12 ar  
     7     5    18 1   
     8     6    13 ar  
     9     6    19 1   
    10     7    12 ar  
    11     7    14 ar  
    12     7    20 1   
    13     8     9 1   
    14     8    14 1   
    15     8    21 1   
    16     8    22 1   
    17     9    15 1   
    18     9    23 1   
    19     9    24 1   
    20    10    13 1   
    21    10    15 1   
    22    10    25 1   
    23    10    26 1   
    24    11    15 1   
    25    11    16 1   
    26    12    27 1   
    27    13    14 ar  
    28    17    27 1   
@<TRIPOS>SUBSTRUCTURE
     1 WV7         1 TEMP              0 ****  ****    0 ROOT
