@<TRIPOS>MOLECULE
WV7
   27    28     1     0     0
SMALL
No Charge or Current Charge


@<TRIPOS>ATOM
      1 OAA         -2.7130    -1.8360    -0.5120 o          1 WV7      -0.548100
      2 FAC         -4.2980     0.3440    -0.7110 f          1 WV7      -0.103000
      3 FAD         -2.4490     1.3740    -1.2130 f          1 WV7      -0.103000
      4 FAE         -3.1160     1.2550     0.8690 f          1 WV7      -0.103000
      5 CAF          3.4230     1.5690     0.3100 ca         1 WV7      -0.142000
      6 CAG          2.0590     1.5820     0.6470 ca         1 WV7      -0.062000
      7 CAH          3.2590    -0.7800    -0.2850 ca         1 WV7      -0.205000
      8 CAI          1.0740    -2.0590    -0.0940 c6         1 WV7      -0.058100
      9 CAJ         -0.2020    -2.0200     0.7670 c6         1 WV7       0.091000
     10 CAK         -0.2060     0.4580     0.8900 c6         1 WV7       0.156300
     11 CAL         -2.2350    -0.7730    -0.1220 c          1 WV7       0.556100
     12 CAM          4.0210     0.3910    -0.1560 ca         1 WV7       0.150100
     13 CAN          1.2850     0.4110     0.5200 ca         1 WV7      -0.149300
     14 CAO          1.8930    -0.7780     0.0550 ca         1 WV7      -0.021300
     15 NAP         -0.9590    -0.7710     0.5110 n          1 WV7      -0.386800
     16 CAQ         -3.0280     0.5640    -0.2930 c3         1 WV7       0.222000
     17 HOAB         5.5820    -0.5150    -0.7870 ho         1 WV7       0.467000
     18 HAF          4.0150     2.4760     0.4100 ha         1 WV7       0.133000
     19 HAG          1.6030     2.5020     1.0060 ha         1 WV7       0.117000
     20 HAH          3.7210    -1.6950    -0.6490 ha         1 WV7       0.115000
     21 HAI          1.6770    -2.9330     0.1850 hc         1 WV7       0.065200
     22 HAIA         0.7980    -2.1910    -1.1490 hc         1 WV7       0.065200
     23 HAJ         -0.8120    -2.9120     0.5660 h1         1 WV7       0.069700
     24 HAJA         0.0770    -2.0550     1.8300 h1         1 WV7       0.069700
     25 HAK         -0.2960     0.6030     1.9770 h1         1 WV7       0.066200
     26 HAKA        -0.6340     1.3480     0.4140 h1         1 WV7       0.066200
     27 OAB          5.3430     0.3870    -0.4840 oh         1 WV7      -0.530100
@<TRIPOS>BOND
     1     1    11 2   
     2     2    16 1   
     3     3    16 1   
     4     4    16 1   
     5     5     6 ar  
     6     5    12 ar  
     7     5    18 1   
     8     6    13 ar  
     9     6    19 1   
    10     7    12 ar  
    11     7    14 ar  
    12     7    20 1   
    13     8     9 1   
    14     8    14 1   
    15     8    21 1   
    16     8    22 1   
    17     9    15 1   
    18     9    23 1   
    19     9    24 1   
    20    10    13 1   
    21    10    15 1   
    22    10    25 1   
    23    10    26 1   
    24    11    15 1   
    25    11    16 1   
    26    12    27 1   
    27    13    14 ar  
    28    17    27 1   
@<TRIPOS>SUBSTRUCTURE
     1 WV7         1 TEMP              0 ****  ****    0 ROOT
