@<TRIPOS>MOLECULE
WV8
   34    35     1     0     0
SMALL
abcg2


@<TRIPOS>ATOM
      1 C5         132.7290   134.2700    99.8030 c5         1 WV8       0.102500
      2 C6         131.3100   133.8460   100.2390 c5         1 WV8       0.125600
      3 C15        138.0290   131.8180    99.7410 ca         1 WV8      -0.112000
      4 C14        137.8380   130.5240    99.2690 ca         1 WV8      -0.114000
      5 C12        135.7210   131.2000    98.3300 ca         1 WV8      -0.106500
      6 C11        135.8990   132.5040    98.7990 ca         1 WV8      -0.070300
      7 C8         132.4970   134.6090   101.9790 c2         1 WV8       0.768500
      8 C3         134.8660   133.5790    98.5420 c3         1 WV8      -0.013400
      9 C16        137.0660   132.7970    99.5050 ca         1 WV8      -0.106500
     10 C13        136.6780   130.2190    98.5610 ca         1 WV8      -0.112000
     11 C2         134.8670   133.9640    97.0500 c3         1 WV8      -0.072400
     12 C4         133.4650   133.1650    99.0520 c3         1 WV8      -0.056400
     13 N10        133.3970   134.6210   101.0720 n2         1 WV8      -0.710900
     14 N9         132.6340   134.9710   103.2810 nv         1 WV8      -1.008200
     15 O7         131.2290   134.2580   101.6300 os         1 WV8      -0.477600
     16 H5         132.6800   135.1650    99.1770 h1         1 WV8       0.069700
     17 H6A        130.5120   134.3400    99.6910 h1         1 WV8       0.062700
     18 H6B        131.1720   132.7630   100.2010 h1         1 WV8       0.062700
     19 H15        138.9260   132.0680   100.2950 ha         1 WV8       0.110000
     20 H14        138.5830   129.7600    99.4510 ha         1 WV8       0.110000
     21 H12        134.8210   130.9460    97.7820 ha         1 WV8       0.111500
     22 H3         135.1770   134.4590    99.1100 hc         1 WV8       0.072700
     23 H16        137.2200   133.8030    99.8780 ha         1 WV8       0.111500
     24 H1A        134.0850   135.4150    95.6440 hc         1 WV8       0.032033
     25 H1B        132.9160   134.9240    96.8670 hc         1 WV8       0.032033
     26 H1C        134.2260   136.0270    97.2950 hc         1 WV8       0.032033
     27 H13        136.5180   129.2130    98.1910 ha         1 WV8       0.110000
     28 H2A        134.5660   133.0890    96.4650 hc         1 WV8       0.040200
     29 H2B        135.8960   134.1920    96.7580 hc         1 WV8       0.040200
     30 H4A        132.8440   132.8320    98.2140 hc         1 WV8       0.044700
     31 H4B        133.5510   132.3140    99.7310 hc         1 WV8       0.044700
     32 H9A        133.5820   135.0340   103.6180 hn         1 WV8       0.482000
     33 H9B        131.9790   134.5620   103.9310 hn         1 WV8       0.482000
     34 C1         133.9710   135.1490    96.6970 c3         1 WV8      -0.089100
@<TRIPOS>BOND
     1     1     2 1   
     2     1    12 1   
     3     1    13 1   
     4     1    16 1   
     5     2    15 1   
     6     2    17 1   
     7     2    18 1   
     8     3     4 ar  
     9     3     9 ar  
    10     3    19 1   
    11     4    10 ar  
    12     4    20 1   
    13     5     6 ar  
    14     5    10 ar  
    15     5    21 1   
    16     6     8 1   
    17     6     9 ar  
    18     7    13 2   
    19     7    14 1   
    20     7    15 1   
    21     8    11 1   
    22     8    12 1   
    23     8    22 1   
    24     9    23 1   
    25    10    27 1   
    26    11    28 1   
    27    11    29 1   
    28    11    34 1   
    29    12    30 1   
    30    12    31 1   
    31    14    32 1   
    32    14    33 1   
    33    24    34 1   
    34    25    34 1   
    35    26    34 1   
@<TRIPOS>SUBSTRUCTURE
     1 WV8         1 TEMP              0 ****  ****    0 ROOT
