@<TRIPOS>MOLECULE
WV8
   34    35     1     0     0
SMALL
No Charge or Current Charge


@<TRIPOS>ATOM
      1 C5         132.6640   134.2120    99.8370 c5         1 WV8       0.102500
      2 C6         131.2890   133.7010   100.3470 c5         1 WV8       0.125600
      3 C15        138.1390   131.6670    99.6170 ca         1 WV8      -0.112000
      4 C14        137.9150   130.4020    99.0480 ca         1 WV8      -0.114000
      5 C12        135.7610   131.1670    98.2100 ca         1 WV8      -0.106500
      6 C11        135.9770   132.4400    98.7800 ca         1 WV8      -0.070300
      7 C8         132.3090   134.9000   101.8740 c2         1 WV8       0.768500
      8 C3         134.9310   133.5510    98.6350 c3         1 WV8      -0.013400
      9 C16        137.1750   132.6810    99.4830 ca         1 WV8      -0.106500
     10 C13        136.7250   130.1530    98.3450 ca         1 WV8      -0.112000
     11 C2         134.8670   134.0130    97.1490 c3         1 WV8      -0.072400
     12 C4         133.5610   133.0970    99.2290 c3         1 WV8      -0.056400
     13 N10        133.2780   134.7880   101.0630 n2         1 WV8      -0.710900
     14 N9         132.3610   135.3910   103.1150 nv         1 WV8      -1.008200
     15 O7         131.0740   134.4790   101.5360 os         1 WV8      -0.477600
     16 H5         132.5140   135.0070    99.0960 h1         1 WV8       0.069700
     17 H6A        130.4730   133.8560    99.6290 h1         1 WV8       0.062700
     18 H6B        131.3290   132.6390   100.6250 h1         1 WV8       0.062700
     19 H15        139.0600   131.8610   100.1620 ha         1 WV8       0.110000
     20 H14        138.6610   129.6180    99.1520 ha         1 WV8       0.110000
     21 H12        134.8450   130.9600    97.6620 ha         1 WV8       0.111500
     22 H3         135.2720   134.4130    99.2220 hc         1 WV8       0.072700
     23 H16        137.3630   133.6550    99.9290 ha         1 WV8       0.111500
     24 H1A        134.1620   135.6020    95.8390 hc         1 WV8       0.032033
     25 H1B        132.9200   134.9890    96.9370 hc         1 WV8       0.032033
     26 H1C        134.2080   136.0610    97.5530 hc         1 WV8       0.032033
     27 H13        136.5500   129.1740    97.9030 ha         1 WV8       0.110000
     28 H2A        134.5300   133.1810    96.5180 hc         1 WV8       0.040200
     29 H2B        135.8880   134.2500    96.8240 hc         1 WV8       0.040200
     30 H4A        133.0030   132.5620    98.4520 hc         1 WV8       0.044700
     31 H4B        133.7540   132.3540   100.0140 hc         1 WV8       0.044700
     32 H9A        133.2900   135.3050   103.5050 hn         1 WV8       0.482000
     33 H9B        131.6210   135.0270   103.6980 hn         1 WV8       0.482000
     34 C1         133.9830   135.2420    96.8590 c3         1 WV8      -0.089100
@<TRIPOS>BOND
     1     1     2 1   
     2     1    12 1   
     3     1    13 1   
     4     1    16 1   
     5     2    15 1   
     6     2    17 1   
     7     2    18 1   
     8     3     4 ar  
     9     3     9 ar  
    10     3    19 1   
    11     4    10 ar  
    12     4    20 1   
    13     5     6 ar  
    14     5    10 ar  
    15     5    21 1   
    16     6     8 1   
    17     6     9 ar  
    18     7    13 2   
    19     7    14 1   
    20     7    15 1   
    21     8    11 1   
    22     8    12 1   
    23     8    22 1   
    24     9    23 1   
    25    10    27 1   
    26    11    28 1   
    27    11    29 1   
    28    11    34 1   
    29    12    30 1   
    30    12    31 1   
    31    14    32 1   
    32    14    33 1   
    33    24    34 1   
    34    25    34 1   
    35    26    34 1   
@<TRIPOS>SUBSTRUCTURE
     1 WV8         1 TEMP              0 ****  ****    0 ROOT
