@<TRIPOS>MOLECULE
WV9
   59    60     1     0     0
SMALL
No Charge or Current Charge


@<TRIPOS>ATOM
      1 N1         -36.5730   -31.3050   -68.7830 n3         1 WV9      -0.724600
      2 C4         -36.7170   -28.7740   -69.3550 c3         1 WV9       0.155600
      3 C5         -37.8700   -31.2620   -68.0480 c3         1 WV9       0.177800
      4 C6         -37.7810   -30.8530   -66.5550 c3         1 WV9      -0.114400
      5 C7         -39.1630   -30.8180   -65.8660 c3         1 WV9      -0.075400
      6 C8         -39.0850   -30.4050   -64.3780 c3         1 WV9      -0.070400
      7 C10        -41.4360   -29.3940   -64.2570 ca         1 WV9      -0.078300
      8 C13        -43.2440   -27.5270   -65.3710 ca         1 WV9      -0.083300
      9 C15        -43.8600   -26.2030   -67.4510 c3         1 WV9       0.156600
     10 C17        -42.1540   -27.0860   -64.5980 ca         1 WV9      -0.106000
     11 C20        -34.4340   -32.6200   -69.2100 c6         1 WV9       0.171300
     12 C1         -33.6400   -31.2790   -69.2820 c6         1 WV9       0.176300
     13 O1         -32.4910   -31.3700   -70.1480 oh         1 WV9      -0.649000
     14 C2         -34.5610   -30.1340   -69.7930 c6         1 WV9       0.132300
     15 O2         -33.7910   -28.9070   -69.8810 oh         1 WV9      -0.738000
     16 C3         -35.8300   -29.9880   -68.8760 c6         1 WV9       0.173500
     17 O3         -37.1940   -28.9000   -70.7080 oh         1 WV9      -0.658000
     18 O4         -44.6850   -25.1210   -67.9380 os         1 WV9      -0.461000
     19 O5         -33.6160   -33.6940   -68.6890 oh         1 WV9      -0.708000
     20 C9         -40.4550   -30.3980   -63.6620 c3         1 WV9      -0.030100
     21 C11        -42.5270   -29.8350   -65.0310 ca         1 WV9      -0.107000
     22 C12        -43.4250   -28.9060   -65.5850 ca         1 WV9      -0.106000
     23 C14        -44.2140   -26.5230   -65.9800 c3         1 WV9      -0.065100
     24 C16        -46.0780   -25.4270   -68.1450 c3         1 WV9       0.142900
     25 C18        -41.2560   -28.0140   -64.0440 ca         1 WV9      -0.107000
     26 C19        -35.6920   -32.4190   -68.3160 c6         1 WV9       0.136800
     27 H2         -36.1250   -27.8540   -69.2570 h1         1 WV9       0.028700
     28 H3         -37.5640   -28.6560   -68.6660 h1         1 WV9       0.028700
     29 H4         -38.5660   -30.5800   -68.5540 h1         1 WV9       0.056200
     30 H5         -38.3420   -32.2530   -68.0970 h1         1 WV9       0.056200
     31 H6         -37.1370   -31.5570   -66.0170 hc         1 WV9       0.040200
     32 H7         -37.3210   -29.8620   -66.4690 hc         1 WV9       0.040200
     33 H8         -39.8110   -30.1160   -66.4050 hc         1 WV9       0.041700
     34 H9         -39.6300   -31.8080   -65.9420 hc         1 WV9       0.041700
     35 H10        -38.4180   -31.0970   -63.8490 hc         1 WV9       0.040200
     36 H11        -38.6320   -29.4090   -64.3000 hc         1 WV9       0.040200
     37 H12        -43.9830   -27.1020   -68.0700 h1         1 WV9       0.046200
     38 H13        -42.8030   -25.9100   -67.4990 h1         1 WV9       0.046200
     39 H14        -41.9990   -26.0230   -64.4280 ha         1 WV9       0.111500
     40 H15        -34.7760   -32.8670   -70.2270 h1         1 WV9       0.058700
     41 H16        -33.3150   -31.0210   -68.2620 h1         1 WV9       0.053700
     42 H17        -32.2800   -30.4300   -70.3560 ho         1 WV9       0.452000
     43 H18        -34.9150   -30.4200   -70.7960 h1         1 WV9       0.073700
     44 H19        -34.3010   -28.2920   -70.4590 ho         1 WV9       0.510000
     45 H20        -35.4690   -29.7220   -67.8710 h1         1 WV9       0.039700
     46 H21        -37.8420   -28.1760   -70.8550 ho         1 WV9       0.439000
     47 H22        -34.0570   -34.5380   -68.9440 ho         1 WV9       0.500000
     48 H23        -40.8760   -31.4110   -63.6870 hc         1 WV9       0.048200
     49 H24        -40.2940   -30.1670   -62.6020 hc         1 WV9       0.048200
     50 H25        -42.6790   -30.8970   -65.2080 ha         1 WV9       0.111000
     51 H26        -44.2620   -29.2610   -66.1830 ha         1 WV9       0.111500
     52 H27        -44.2100   -25.5920   -65.4000 hc         1 WV9       0.055200
     53 H28        -45.2330   -26.9230   -65.9210 hc         1 WV9       0.055200
     54 H29        -46.5870   -24.5750   -68.6130 h1         1 WV9       0.029700
     55 H30        -46.1940   -26.2960   -68.8060 h1         1 WV9       0.029700
     56 H31        -46.5860   -25.6390   -67.1960 h1         1 WV9       0.029700
     57 H32        -40.4170   -27.6600   -63.4500 ha         1 WV9       0.111000
     58 H33        -36.2600   -33.3600   -68.3010 h1         1 WV9       0.040200
     59 H34        -35.3580   -32.2300   -67.2850 h1         1 WV9       0.040200
@<TRIPOS>BOND
     1     1     3 1   
     2     1    16 1   
     3     1    26 1   
     4     2    16 1   
     5     2    17 1   
     6     2    27 1   
     7     2    28 1   
     8     3     4 1   
     9     3    29 1   
    10     3    30 1   
    11     4     5 1   
    12     4    31 1   
    13     4    32 1   
    14     5     6 1   
    15     5    33 1   
    16     5    34 1   
    17     6    20 1   
    18     6    35 1   
    19     6    36 1   
    20     7    20 1   
    21     7    21 ar  
    22     7    25 ar  
    23     8    10 ar  
    24     8    22 ar  
    25     8    23 1   
    26     9    18 1   
    27     9    23 1   
    28     9    37 1   
    29     9    38 1   
    30    10    25 ar  
    31    10    39 1   
    32    11    12 1   
    33    11    19 1   
    34    11    26 1   
    35    11    40 1   
    36    12    13 1   
    37    12    14 1   
    38    12    41 1   
    39    13    42 1   
    40    14    15 1   
    41    14    16 1   
    42    14    43 1   
    43    15    44 1   
    44    16    45 1   
    45    17    46 1   
    46    18    24 1   
    47    19    47 1   
    48    20    48 1   
    49    20    49 1   
    50    21    22 ar  
    51    21    50 1   
    52    22    51 1   
    53    23    52 1   
    54    23    53 1   
    55    24    54 1   
    56    24    55 1   
    57    24    56 1   
    58    25    57 1   
    59    26    58 1   
    60    26    59 1   
@<TRIPOS>SUBSTRUCTURE
     1 WV9         1 TEMP              0 ****  ****    0 ROOT
