@<TRIPOS>MOLECULE
WV9
   59    60     1     0     0
SMALL
abcg2


@<TRIPOS>ATOM
      1 N1         -36.6670   -31.1880   -68.6500 n3         1 WV9      -0.724600
      2 C4         -36.9010   -28.7250   -68.9960 c3         1 WV9       0.155600
      3 C5         -37.9000   -31.2020   -67.8620 c3         1 WV9       0.177800
      4 C6         -37.7800   -30.8690   -66.3710 c3         1 WV9      -0.114400
      5 C7         -39.1490   -30.8630   -65.6970 c3         1 WV9      -0.075400
      6 C8         -39.1020   -30.4580   -64.2270 c3         1 WV9      -0.070400
      7 C10        -41.4400   -29.4640   -64.1530 ca         1 WV9      -0.078300
      8 C13        -43.1790   -27.5870   -65.3640 ca         1 WV9      -0.083300
      9 C15        -43.4810   -26.1640   -67.4000 c3         1 WV9       0.156600
     10 C17        -42.1730   -27.1750   -64.4870 ca         1 WV9      -0.106000
     11 C20        -34.6940   -32.4600   -69.3730 c6         1 WV9       0.171300
     12 C1         -33.9500   -31.1660   -69.6120 c6         1 WV9       0.176300
     13 O1         -33.0710   -31.3180   -70.7240 oh         1 WV9      -0.649000
     14 C2         -34.9180   -30.0170   -69.8550 c6         1 WV9       0.132300
     15 O2         -34.1070   -28.8390   -69.9450 oh         1 WV9      -0.738000
     16 C3         -35.9720   -29.9020   -68.7430 c6         1 WV9       0.173500
     17 O3         -37.6100   -28.9120   -70.2230 oh         1 WV9      -0.658000
     18 O4         -44.2660   -25.1940   -68.0820 os         1 WV9      -0.461000
     19 O5         -33.7430   -33.4520   -68.9790 oh         1 WV9      -0.708000
     20 C9         -40.4800   -30.4530   -63.5430 c3         1 WV9      -0.030100
     21 C11        -42.4490   -29.8740   -65.0250 ca         1 WV9      -0.107000
     22 C12        -43.3030   -28.9530   -65.6220 ca         1 WV9      -0.106000
     23 C14        -44.0710   -26.5870   -66.0500 c3         1 WV9      -0.065100
     24 C16        -45.4180   -25.7310   -68.7150 c3         1 WV9       0.142900
     25 C18        -41.3200   -28.0980   -63.8920 ca         1 WV9      -0.107000
     26 C19        -35.7470   -32.2550   -68.2870 c6         1 WV9       0.136800
     27 H2         -36.2910   -27.8180   -69.0380 h1         1 WV9       0.028700
     28 H3         -37.5990   -28.6090   -68.1630 h1         1 WV9       0.028700
     29 H4         -38.6090   -30.5150   -68.3270 h1         1 WV9       0.056200
     30 H5         -38.3290   -32.2030   -67.9680 h1         1 WV9       0.056200
     31 H6         -37.1260   -31.5930   -65.8760 hc         1 WV9       0.040200
     32 H7         -37.3140   -29.8870   -66.2440 hc         1 WV9       0.040200
     33 H8         -39.8090   -30.1790   -66.2400 hc         1 WV9       0.041700
     34 H9         -39.6040   -31.8570   -65.7840 hc         1 WV9       0.041700
     35 H10        -38.4440   -31.1420   -63.6810 hc         1 WV9       0.040200
     36 H11        -38.6580   -29.4610   -64.1400 hc         1 WV9       0.040200
     37 H12        -43.3430   -27.0460   -68.0380 h1         1 WV9       0.046200
     38 H13        -42.5030   -25.7050   -67.2410 h1         1 WV9       0.046200
     39 H14        -42.0620   -26.1200   -64.2650 ha         1 WV9       0.111500
     40 H15        -35.1870   -32.7610   -70.3040 h1         1 WV9       0.058700
     41 H16        -33.3670   -30.9350   -68.7080 h1         1 WV9       0.053700
     42 H17        -32.7310   -30.4350   -70.9260 ho         1 WV9       0.452000
     43 H18        -35.4300   -30.1860   -70.8050 h1         1 WV9       0.073700
     44 H19        -34.5250   -28.2150   -70.5500 ho         1 WV9       0.510000
     45 H20        -35.4380   -29.6660   -67.8050 h1         1 WV9       0.039700
     46 H21        -38.1510   -28.1290   -70.3780 ho         1 WV9       0.439000
     47 H22        -34.1990   -34.3010   -68.9260 ho         1 WV9       0.500000
     48 H23        -40.9100   -31.4570   -63.5990 hc         1 WV9       0.048200
     49 H24        -40.3430   -30.2210   -62.4830 hc         1 WV9       0.048200
     50 H25        -42.5660   -30.9300   -65.2420 ha         1 WV9       0.111000
     51 H26        -44.0790   -29.2990   -66.2950 ha         1 WV9       0.111500
     52 H27        -44.1910   -25.6960   -65.4300 hc         1 WV9       0.055200
     53 H28        -45.0610   -27.0210   -66.2050 hc         1 WV9       0.055200
     54 H29        -45.8790   -24.9230   -69.2810 h1         1 WV9       0.029700
     55 H30        -45.1430   -26.5410   -69.4000 h1         1 WV9       0.029700
     56 H31        -46.1440   -26.1150   -67.9910 h1         1 WV9       0.029700
     57 H32        -40.5500   -27.7510   -63.2130 ha         1 WV9       0.111000
     58 H33        -36.3130   -33.1810   -68.1650 h1         1 WV9       0.040200
     59 H34        -35.2240   -32.0610   -67.3360 h1         1 WV9       0.040200
@<TRIPOS>BOND
     1     1     3 1   
     2     1    16 1   
     3     1    26 1   
     4     2    16 1   
     5     2    17 1   
     6     2    27 1   
     7     2    28 1   
     8     3     4 1   
     9     3    29 1   
    10     3    30 1   
    11     4     5 1   
    12     4    31 1   
    13     4    32 1   
    14     5     6 1   
    15     5    33 1   
    16     5    34 1   
    17     6    20 1   
    18     6    35 1   
    19     6    36 1   
    20     7    20 1   
    21     7    21 ar  
    22     7    25 ar  
    23     8    10 ar  
    24     8    22 ar  
    25     8    23 1   
    26     9    18 1   
    27     9    23 1   
    28     9    37 1   
    29     9    38 1   
    30    10    25 ar  
    31    10    39 1   
    32    11    12 1   
    33    11    19 1   
    34    11    26 1   
    35    11    40 1   
    36    12    13 1   
    37    12    14 1   
    38    12    41 1   
    39    13    42 1   
    40    14    15 1   
    41    14    16 1   
    42    14    43 1   
    43    15    44 1   
    44    16    45 1   
    45    17    46 1   
    46    18    24 1   
    47    19    47 1   
    48    20    48 1   
    49    20    49 1   
    50    21    22 ar  
    51    21    50 1   
    52    22    51 1   
    53    23    52 1   
    54    23    53 1   
    55    24    54 1   
    56    24    55 1   
    57    24    56 1   
    58    25    57 1   
    59    26    58 1   
    60    26    59 1   
@<TRIPOS>SUBSTRUCTURE
     1 WV9         1 TEMP              0 ****  ****    0 ROOT
