@<TRIPOS>MOLECULE
WVA
   54    58     1     0     0
SMALL
abcg2


@<TRIPOS>ATOM
      1 C10         19.2230    16.0920    19.2430 c3         1 WVA       0.071600
      2 C13         19.9040    14.0420    16.0490 c3         1 WVA       0.302000
      3 C17         20.0270    18.3810    19.9620 cc         1 WVA       0.386800
      4 C21         16.7660    18.9790    18.7940 c          1 WVA       0.605000
      5 C24         14.3230    18.8480    19.6330 cx         1 WVA      -0.074400
      6 C26         16.1700    20.5660    20.4240 ca         1 WVA      -0.119300
      7 C28         16.4240    22.2450    22.1100 ca         1 WVA      -0.179000
      8 C03         22.6910    16.6660    23.1190 ca         1 WVA      -0.111300
      9 C04         22.3120    17.8770    22.5680 ca         1 WVA      -0.023000
     10 C05         21.3810    17.8740    21.5290 ca         1 WVA       0.066400
     11 C06         20.8370    16.6710    21.0660 ca         1 WVA      -0.079200
     12 C07         21.2090    15.4420    21.6030 ca         1 WVA      -0.116000
     13 C08         22.1390    15.4670    22.6240 ca         1 WVA      -0.091000
     14 C11         20.0400    15.5670    18.0680 c3         1 WVA      -0.094400
     15 C12         19.1730    14.6450    17.2160 c3         1 WVA      -0.153400
     16 C19         19.2420    19.1840    18.9710 c3         1 WVA       0.092700
     17 C23         15.5980    19.6370    19.4390 cx         1 WVA      -0.193700
     18 C25         14.3630    19.9160    18.6130 cx         1 WVA      -0.074400
     19 C27         15.6000    21.4650    21.2990 ca         1 WVA      -0.040000
     20 C29         17.7930    22.0920    22.0120 ca         1 WVA       0.201000
     21 C31         18.4050    21.1940    21.1490 ca         1 WVA      -0.168000
     22 C32         17.5590    20.4380    20.3580 ca         1 WVA      -0.008000
     23 F14         20.9280    13.2640    16.4330 f          1 WVA      -0.117333
     24 F15         19.1030    13.2720    15.2960 f          1 WVA      -0.117333
     25 F16         20.4180    14.9760    15.2320 f          1 WVA      -0.117333
     26 F30         18.5820    22.8490    22.7940 f          1 WVA      -0.173000
     27 N01         24.4160    17.8160    24.4600 n8         1 WVA      -1.000200
     28 N09         19.9630    17.0230    20.0670 na         1 WVA      -0.165600
     29 N18         20.8560    18.9220    20.8140 nd         1 WVA      -0.569100
     30 N20         17.8930    19.4860    19.3960 n          1 WVA      -0.215400
     31 H1          18.3190    16.5810    18.8840 h1         1 WVA       0.071200
     32 H2          18.8950    15.2670    19.8780 h1         1 WVA       0.071200
     33 H3          13.7920    19.0320    20.5580 hc         1 WVA       0.086200
     34 H4          14.3380    17.8170    19.3050 hc         1 WVA       0.086200
     35 H5          16.0030    22.9600    22.8050 ha         1 WVA       0.135000
     36 H6          23.1160    16.3840    25.1830 h1         1 WVA       0.033200
     37 H7          24.3110    15.7040    24.1090 h1         1 WVA       0.033200
     38 H8          22.7300    18.8060    22.9340 ha         1 WVA       0.148000
     39 H9          20.8020    14.5050    21.2420 ha         1 WVA       0.117000
     40 H10         22.4590    14.5280    23.0610 ha         1 WVA       0.109000
     41 H11         20.9200    15.0390    18.4390 hc         1 WVA       0.067200
     42 H12         20.3940    16.4120    17.4740 hc         1 WVA       0.067200
     43 H13         18.3120    15.1950    16.8290 hc         1 WVA       0.083700
     44 H14         18.7790    13.8260    17.8240 hc         1 WVA       0.083700
     45 H15         19.1830    18.6760    18.0080 h1         1 WVA       0.083700
     46 H16         19.7800    20.1190    18.8070 h1         1 WVA       0.083700
     47 H17         13.8630    20.8530    18.8210 hc         1 WVA       0.086200
     48 H18         14.4050    19.6360    17.5680 hc         1 WVA       0.086200
     49 H19         14.5250    21.5770    21.3600 ha         1 WVA       0.120000
     50 H20         19.4820    21.0900    21.1210 ha         1 WVA       0.166000
     51 H21         24.9560    17.7470    25.3120 hn         1 WVA       0.398000
     52 H22         25.0880    17.9350    23.7120 hn         1 WVA       0.398000
     53 C02         23.6740    16.5850    24.2640 c3         1 WVA       0.203100
     54 O22         16.7540    18.1530    17.9050 o          1 WVA      -0.543000
@<TRIPOS>BOND
     1     1    14 1   
     2     1    28 1   
     3     1    31 1   
     4     1    32 1   
     5     2    15 1   
     6     2    23 1   
     7     2    24 1   
     8     2    25 1   
     9     3    16 1   
    10     3    28 1   
    11     3    29 2   
    12     4    17 1   
    13     4    30 1   
    14     4    54 2   
    15     5    17 1   
    16     5    18 1   
    17     5    33 1   
    18     5    34 1   
    19     6    17 1   
    20     6    19 ar  
    21     6    22 ar  
    22     7    19 ar  
    23     7    20 ar  
    24     7    35 1   
    25     8     9 ar  
    26     8    13 ar  
    27     8    53 1   
    28     9    10 ar  
    29     9    38 1   
    30    10    11 ar  
    31    10    29 1   
    32    11    12 ar  
    33    11    28 1   
    34    12    13 ar  
    35    12    39 1   
    36    13    40 1   
    37    14    15 1   
    38    14    41 1   
    39    14    42 1   
    40    15    43 1   
    41    15    44 1   
    42    16    30 1   
    43    16    45 1   
    44    16    46 1   
    45    17    18 1   
    46    18    47 1   
    47    18    48 1   
    48    19    49 1   
    49    20    21 ar  
    50    20    26 1   
    51    21    22 ar  
    52    21    50 1   
    53    22    30 1   
    54    27    51 1   
    55    27    52 1   
    56    27    53 1   
    57    36    53 1   
    58    37    53 1   
@<TRIPOS>SUBSTRUCTURE
     1 WVA         1 TEMP              0 ****  ****    0 ROOT
