@<TRIPOS>MOLECULE
WVA
   54    58     1     0     0
SMALL
No Charge or Current Charge


@<TRIPOS>ATOM
      1 C10         19.0640    16.7170    19.8890 c3         1 WVA       0.071600
      2 C13         18.4550    14.5400    16.6260 c3         1 WVA       0.302000
      3 C17         20.4970    18.8950    19.9780 cc         1 WVA       0.386800
      4 C21         17.4880    19.3030    17.9940 c          1 WVA       0.605000
      5 C24         15.0980    18.2160    18.2720 cx         1 WVA      -0.074400
      6 C26         16.3110    19.8190    20.0060 ca         1 WVA      -0.119300
      7 C28         15.8250    20.6790    22.2070 ca         1 WVA      -0.179000
      8 C03         23.0410    17.0700    23.2740 ca         1 WVA      -0.111300
      9 C04         22.8800    18.2480    22.5080 ca         1 WVA      -0.023000
     10 C05         21.8570    18.2960    21.5500 ca         1 WVA       0.066400
     11 C06         21.0270    17.2280    21.3580 ca         1 WVA      -0.079200
     12 C07         21.1540    16.0360    22.0890 ca         1 WVA      -0.116000
     13 C08         22.1760    15.9670    23.0580 ca         1 WVA      -0.091000
     14 C11         19.3720    16.0630    18.5270 c3         1 WVA      -0.094400
     15 C12         18.1990    15.1980    18.0000 c3         1 WVA      -0.153400
     16 C19         19.8260    19.6970    18.8820 c3         1 WVA       0.092700
     17 C23         16.0940    19.3030    18.6150 cx         1 WVA      -0.193700
     18 C25         14.8770    19.6290    17.7770 cx         1 WVA      -0.074400
     19 C27         15.3660    20.1090    21.0020 ca         1 WVA      -0.040000
     20 C29         17.1950    20.9760    22.3780 ca         1 WVA       0.201000
     21 C31         18.1280    20.6900    21.3640 ca         1 WVA      -0.168000
     22 C32         17.6630    20.0510    20.2060 ca         1 WVA      -0.008000
     23 F14         19.5270    13.7180    16.6710 f          1 WVA      -0.117333
     24 F15         17.3850    13.8060    16.2460 f          1 WVA      -0.117333
     25 F16         18.6780    15.4720    15.6720 f          1 WVA      -0.117333
     26 F30         17.6130    21.5610    23.5220 f          1 WVA      -0.173000
     27 N01         25.4440    16.6980    23.7150 n8         1 WVA      -1.000200
     28 N09         20.1540    17.5900    20.3710 na         1 WVA      -0.165600
     29 N18         21.5460    19.3500    20.6950 nd         1 WVA      -0.569100
     30 N20         18.3520    19.7680    18.9980 n          1 WVA      -0.215400
     31 H1          18.1420    17.3030    19.8160 h1         1 WVA       0.071200
     32 H2          18.8700    15.9310    20.6290 h1         1 WVA       0.071200
     33 H3          14.4500    17.8500    19.0640 hc         1 WVA       0.086200
     34 H4          15.3860    17.4660    17.5390 hc         1 WVA       0.086200
     35 H5          15.1200    20.9170    22.9990 ha         1 WVA       0.135000
     36 H6          24.2040    17.9480    24.8650 h1         1 WVA       0.033200
     37 H7          23.9010    16.2050    25.0560 h1         1 WVA       0.033200
     38 H8          23.5370    19.1020    22.6520 ha         1 WVA       0.148000
     39 H9          20.4960    15.1870    21.9230 ha         1 WVA       0.117000
     40 H10         22.2980    15.0570    23.6420 ha         1 WVA       0.109000
     41 H11         20.2730    15.4430    18.6270 hc         1 WVA       0.067200
     42 H12         19.6040    16.8450    17.7940 hc         1 WVA       0.067200
     43 H13         17.2980    15.8200    17.9250 hc         1 WVA       0.083700
     44 H14         17.9750    14.4090    18.7300 hc         1 WVA       0.083700
     45 H15         20.1040    19.2590    17.9160 h1         1 WVA       0.083700
     46 H16         20.2200    20.7200    18.9020 h1         1 WVA       0.083700
     47 H17         14.0790    20.2070    18.2370 hc         1 WVA       0.086200
     48 H18         15.0210    19.8220    16.7170 hc         1 WVA       0.086200
     49 H19         14.3070    19.9160    20.8440 ha         1 WVA       0.120000
     50 H20         19.1740    20.9520    21.4910 ha         1 WVA       0.166000
     51 H21         26.1360    16.5640    24.4620 hn         1 WVA       0.398000
     52 H22         25.3920    15.7780    23.2630 hn         1 WVA       0.398000
     53 C02         24.1370    16.9930    24.3270 c3         1 WVA       0.203100
     54 O22         17.8000    18.9360    16.8680 o          1 WVA      -0.543000
@<TRIPOS>BOND
     1     1    14 1   
     2     1    28 1   
     3     1    31 1   
     4     1    32 1   
     5     2    15 1   
     6     2    23 1   
     7     2    24 1   
     8     2    25 1   
     9     3    16 1   
    10     3    28 1   
    11     3    29 2   
    12     4    17 1   
    13     4    30 1   
    14     4    54 2   
    15     5    17 1   
    16     5    18 1   
    17     5    33 1   
    18     5    34 1   
    19     6    17 1   
    20     6    19 ar  
    21     6    22 ar  
    22     7    19 ar  
    23     7    20 ar  
    24     7    35 1   
    25     8     9 ar  
    26     8    13 ar  
    27     8    53 1   
    28     9    10 ar  
    29     9    38 1   
    30    10    11 ar  
    31    10    29 1   
    32    11    12 ar  
    33    11    28 1   
    34    12    13 ar  
    35    12    39 1   
    36    13    40 1   
    37    14    15 1   
    38    14    41 1   
    39    14    42 1   
    40    15    43 1   
    41    15    44 1   
    42    16    30 1   
    43    16    45 1   
    44    16    46 1   
    45    17    18 1   
    46    18    47 1   
    47    18    48 1   
    48    19    49 1   
    49    20    21 ar  
    50    20    26 1   
    51    21    22 ar  
    52    21    50 1   
    53    22    30 1   
    54    27    51 1   
    55    27    52 1   
    56    27    53 1   
    57    36    53 1   
    58    37    53 1   
@<TRIPOS>SUBSTRUCTURE
     1 WVA         1 TEMP              0 ****  ****    0 ROOT
