@<TRIPOS>MOLECULE
WVE
   44    47     1     0     0
SMALL
No Charge or Current Charge


@<TRIPOS>ATOM
      1 C18         -5.4560    -0.1480    20.1960 ca         1 WVE       0.045000
      2 C17         -6.8010    -0.1410    20.6150 ca         1 WVE      -0.349500
      3 C16         -7.1810     0.5840    21.7570 ca         1 WVE       0.033000
      4 C15         -6.2150     1.3120    22.4650 ca         1 WVE      -0.215000
      5 C14         -1.9960    -0.3370    22.5050 c5         1 WVE      -0.069400
      6 C13         -2.4320    -1.5020    21.5620 c5         1 WVE      -0.077400
      7 C12         -2.4660    -0.8600    20.1510 c5         1 WVE      -0.073400
      8 C11         -2.0900     0.9720    21.6370 c5         1 WVE      -0.069700
      9 C10         -3.0010     0.5740    20.4390 c5         1 WVE      -0.008400
     10 C01          0.3330     3.7730    24.4270 ca         1 WVE      -0.136000
     11 C02          0.0600     3.2850    25.7110 ca         1 WVE       0.148100
     12 C03         -1.0540     2.4640    25.9240 ca         1 WVE      -0.199000
     13 C04         -1.9010     2.1330    24.8520 ca         1 WVE      -0.052000
     14 C05         -1.6430     2.6260    23.5510 ca         1 WVE      -0.124300
     15 C06         -0.5080     3.4470    23.3510 ca         1 WVE       0.166000
     16 C07         -2.5610     2.2560    22.3690 c6         1 WVE       0.286800
     17 N01         -3.9580     2.0620    22.7780 nu         1 WVE      -0.949200
     18 C08         -4.8780     1.3090    22.0510 ca         1 WVE       0.379000
     19 C09         -4.4710     0.5590    20.9200 ca         1 WVE      -0.163300
     20 Cl01        -0.0910     4.0810    21.7570 cl         1 WVE      -0.206000
     21 S01         -8.0290    -1.0540    19.6870 sy         1 WVE       1.155600
     22 O02         -9.3750    -0.5660    19.9770 o          1 WVE      -0.558500
     23 O03         -7.5680    -1.3200    18.3270 o          1 WVE      -0.558500
     24 N02         -7.9950    -2.5190    20.3950 n8         1 WVE      -1.005100
     25 H1          -5.1790    -0.6980    19.3000 ha         1 WVE       0.128000
     26 H2          -8.2170     0.5950    22.0940 ha         1 WVE       0.137000
     27 H3          -6.5110     1.8830    23.3400 ha         1 WVE       0.115000
     28 H4          -2.6490    -0.3030    23.3830 hc         1 WVE       0.047200
     29 H5          -0.9770    -0.4810    22.8830 hc         1 WVE       0.047200
     30 H6          -3.4220    -1.8800    21.8450 hc         1 WVE       0.044700
     31 H7          -1.7440    -2.3530    21.6100 hc         1 WVE       0.044700
     32 H8          -3.0760    -1.4320    19.4450 hc         1 WVE       0.048200
     33 H9          -1.4580    -0.8170    19.7210 hc         1 WVE       0.048200
     34 H10         -1.0910     1.2190    21.2580 hc         1 WVE       0.065700
     35 H11         -2.8670     1.2440    19.5810 hc         1 WVE       0.064700
     36 H12          1.2010     4.4040    24.2620 ha         1 WVE       0.149000
     37 H13         -1.2720     2.0740    26.9160 ha         1 WVE       0.121000
     38 H14         -2.7560     1.4860    25.0380 ha         1 WVE       0.128000
     39 H15         -2.5440     3.0750    21.6350 h1         1 WVE       0.058700
     40 H16         -4.3340     2.6450    23.5230 hn         1 WVE       0.478000
     41 H17          0.5400     3.1800    27.5610 ho         1 WVE       0.468000
     42 H18         -8.9830    -2.6390    20.6020 hn         1 WVE       0.469500
     43 H19         -7.8740    -3.1090    19.5750 hn         1 WVE       0.469500
     44 O01          0.8840     3.6070    26.7470 oh         1 WVE      -0.530100
@<TRIPOS>BOND
     1     1     2 ar  
     2     1    19 ar  
     3     1    25 1   
     4     2     3 ar  
     5     2    21 1   
     6     3     4 ar  
     7     3    26 1   
     8     4    18 ar  
     9     4    27 1   
    10     5     6 1   
    11     5     8 1   
    12     5    28 1   
    13     5    29 1   
    14     6     7 1   
    15     6    30 1   
    16     6    31 1   
    17     7     9 1   
    18     7    32 1   
    19     7    33 1   
    20     8     9 1   
    21     8    16 1   
    22     8    34 1   
    23     9    19 1   
    24     9    35 1   
    25    10    11 ar  
    26    10    15 ar  
    27    10    36 1   
    28    11    12 ar  
    29    11    44 1   
    30    12    13 ar  
    31    12    37 1   
    32    13    14 ar  
    33    13    38 1   
    34    14    15 ar  
    35    14    16 1   
    36    15    20 1   
    37    16    17 1   
    38    16    39 1   
    39    17    18 1   
    40    17    40 1   
    41    18    19 ar  
    42    21    22 2   
    43    21    23 2   
    44    21    24 1   
    45    24    42 1   
    46    24    43 1   
    47    41    44 1   
@<TRIPOS>SUBSTRUCTURE
     1 WVE         1 TEMP              0 ****  ****    0 ROOT
