@<TRIPOS>MOLECULE
WVE
   44    47     1     0     0
SMALL
abcg2


@<TRIPOS>ATOM
      1 C18         -5.4960    -0.1000    20.2300 ca         1 WVE       0.045000
      2 C17         -6.8400    -0.0460    20.5960 ca         1 WVE      -0.349500
      3 C16         -7.2260     0.6340    21.7510 ca         1 WVE       0.033000
      4 C15         -6.2640     1.2610    22.5150 ca         1 WVE      -0.215000
      5 C14         -1.9280    -0.3710    22.5990 c5         1 WVE      -0.069400
      6 C13         -2.3650    -1.5770    21.7310 c5         1 WVE      -0.077400
      7 C12         -2.5780    -1.0040    20.3220 c5         1 WVE      -0.073400
      8 C11         -2.1170     0.8820    21.7100 c5         1 WVE      -0.069700
      9 C10         -3.0560     0.4360    20.5750 c5         1 WVE      -0.008400
     10 C01          0.2920     3.7480    24.2840 ca         1 WVE      -0.136000
     11 C02          0.0570     3.3500    25.5970 ca         1 WVE       0.148100
     12 C03         -1.0570     2.5690    25.8930 ca         1 WVE      -0.199000
     13 C04         -1.9210     2.1950    24.8750 ca         1 WVE      -0.052000
     14 C05         -1.7200     2.5740    23.5470 ca         1 WVE      -0.124300
     15 C06         -0.5920     3.3570    23.2910 ca         1 WVE       0.166000
     16 C07         -2.6430     2.1260    22.4360 c6         1 WVE       0.286800
     17 N01         -3.9790     1.8470    22.9430 nu         1 WVE      -0.949200
     18 C08         -4.9050     1.2210    22.1520 ca         1 WVE       0.379000
     19 C09         -4.5140     0.5140    20.9890 ca         1 WVE      -0.163300
     20 CL01        -0.2340     3.8940    21.6560 cl         1 WVE      -0.206000
     21 S01         -8.0400    -0.8190    19.5800 sy         1 WVE       1.155600
     22 O02         -9.3530    -0.5210    20.1200 o          1 WVE      -0.558500
     23 O03         -7.8080    -0.5030    18.1840 o          1 WVE      -0.558500
     24 N02         -7.6610    -2.4230    19.7220 n8         1 WVE      -1.005100
     25 H1          -5.2130    -0.6310    19.3310 ha         1 WVE       0.128000
     26 H2          -8.2660     0.6730    22.0380 ha         1 WVE       0.137000
     27 H3          -6.5510     1.8000    23.4100 ha         1 WVE       0.115000
     28 H4          -2.5390    -0.3040    23.4980 hc         1 WVE       0.047200
     29 H5          -0.8910    -0.4550    22.9230 hc         1 WVE       0.047200
     30 H6          -3.3010    -1.9920    22.1080 hc         1 WVE       0.044700
     31 H7          -1.6300    -2.3830    21.7370 hc         1 WVE       0.044700
     32 H8          -3.2690    -1.5930    19.7200 hc         1 WVE       0.048200
     33 H9          -1.6280    -0.9610    19.7840 hc         1 WVE       0.048200
     34 H10         -1.1600     1.1500    21.2630 hc         1 WVE       0.065700
     35 H11         -2.9090     1.0580    19.6890 hc         1 WVE       0.064700
     36 H12          1.1550     4.3560    24.0500 ha         1 WVE       0.149000
     37 H13         -1.2440     2.2590    26.9140 ha         1 WVE       0.121000
     38 H14         -2.7810     1.5850    25.1160 ha         1 WVE       0.128000
     39 H15         -2.6950     2.9330    21.6970 h1         1 WVE       0.058700
     40 H16         -4.3490     2.5170    23.6010 hn         1 WVE       0.478000
     41 H17          0.6860     3.4240    27.4120 ho         1 WVE       0.468000
     42 H18         -7.9340    -2.7970    20.6260 hn         1 WVE       0.469500
     43 H19         -8.0860    -2.9540    18.9660 hn         1 WVE       0.469500
     44 O01          0.9480     3.7600    26.5430 oh         1 WVE      -0.530100
@<TRIPOS>BOND
     1     1     2 ar  
     2     1    19 ar  
     3     1    25 1   
     4     2     3 ar  
     5     2    21 1   
     6     3     4 ar  
     7     3    26 1   
     8     4    18 ar  
     9     4    27 1   
    10     5     6 1   
    11     5     8 1   
    12     5    28 1   
    13     5    29 1   
    14     6     7 1   
    15     6    30 1   
    16     6    31 1   
    17     7     9 1   
    18     7    32 1   
    19     7    33 1   
    20     8     9 1   
    21     8    16 1   
    22     8    34 1   
    23     9    19 1   
    24     9    35 1   
    25    10    11 ar  
    26    10    15 ar  
    27    10    36 1   
    28    11    12 ar  
    29    11    44 1   
    30    12    13 ar  
    31    12    37 1   
    32    13    14 ar  
    33    13    38 1   
    34    14    15 ar  
    35    14    16 1   
    36    15    20 1   
    37    16    17 1   
    38    16    39 1   
    39    17    18 1   
    40    17    40 1   
    41    18    19 ar  
    42    21    22 2   
    43    21    23 2   
    44    21    24 1   
    45    24    42 1   
    46    24    43 1   
    47    41    44 1   
@<TRIPOS>SUBSTRUCTURE
     1 WVE         1 TEMP              0 ****  ****    0 ROOT
