@<TRIPOS>MOLECULE
WVG
   37    39     1     0     0
SMALL
abcg2


@<TRIPOS>ATOM
      1 C20        -46.9310   -28.7910     4.9160 ca         1 WVG      -0.254800
      2 C02        -43.5870   -33.5760    -1.3950 c          1 WVG       0.705000
      3 C04        -44.6260   -32.5140    -0.9960 c3         1 WVG      -0.197400
      4 C05        -44.3670   -31.9500     0.4040 c3         1 WVG      -0.057400
      5 C06        -45.3370   -30.8430     0.8230 c6         1 WVG      -0.081700
      6 C07        -46.7640   -31.3360     1.0830 c6         1 WVG      -0.070400
      7 C08        -47.7180   -30.1530     1.3430 c6         1 WVG      -0.095400
      8 C09        -46.9390   -28.9640     1.9150 c6         1 WVG       0.223800
      9 C11        -44.8040   -30.1570     2.0940 c6         1 WVG       0.221800
     10 C12        -45.8340   -29.2410     4.1240 ca         1 WVG       0.446900
     11 C14        -44.5550   -29.3310     6.0620 ca         1 WVG       0.180900
     12 C16        -46.6490   -28.6380     6.2920 ca         1 WVG       0.146500
     13 C18        -48.8090   -28.1450     5.9910 cc         1 WVG      -0.203100
     14 C19        -48.3270   -28.4790     4.7550 cd         1 WVG      -0.193200
     15 N10        -45.8700   -29.4290     2.7880 nh         1 WVG      -0.767300
     16 N13        -44.6640   -29.5170     4.7450 nb         1 WVG      -0.300000
     17 N15        -45.4780   -28.8860     6.9030 nb         1 WVG      -0.260000
     18 N17        -47.7910   -28.2380     6.9170 na         1 WVG      -0.330400
     19 O01        -42.3980   -33.1820    -1.5370 o          1 WVG      -0.741500
     20 O03        -43.9900   -34.7600    -1.5450 o          1 WVG      -0.741500
     21 H042       -44.5770   -31.6940    -1.7210 hc         1 WVG       0.018200
     22 H041       -45.6230   -32.9510    -1.0520 hc         1 WVG       0.018200
     23 H052       -44.4140   -32.7590     1.1410 hc         1 WVG       0.045700
     24 H051       -43.3470   -31.5570     0.4360 hc         1 WVG       0.045700
     25 H061       -45.3700   -30.1090     0.0100 hc         1 WVG       0.041700
     26 H071       -47.1270   -31.9330     0.2460 hc         1 WVG       0.052200
     27 H072       -46.7420   -31.9960     1.9550 hc         1 WVG       0.052200
     28 H082       -48.2030   -29.8380     0.4160 hc         1 WVG       0.038200
     29 H081       -48.5070   -30.4520     2.0370 hc         1 WVG       0.038200
     30 H092       -46.4700   -28.4040     1.1010 h1         1 WVG       0.048200
     31 H091       -47.5740   -28.2640     2.4410 h1         1 WVG       0.048200
     32 H112       -44.4160   -30.9130     2.7750 h1         1 WVG       0.060700
     33 H111       -43.9750   -29.4860     1.8450 h1         1 WVG       0.060700
     34 H141       -43.5860   -29.5700     6.4910 h5         1 WVG       0.039100
     35 H181       -49.8010   -27.8530     6.2930 h4         1 WVG       0.208000
     36 H191       -48.9220   -28.5090     3.8610 ha         1 WVG       0.200000
     37 H171       -47.8740   -28.0610     7.9050 hn         1 WVG       0.353000
@<TRIPOS>BOND
     1     1    10 ar  
     2     1    12 ar  
     3     1    14 1   
     4     2     3 1   
     5     2    19 1   
     6     2    20 1   
     7     3     4 1   
     8     3    21 1   
     9     3    22 1   
    10     4     5 1   
    11     4    23 1   
    12     4    24 1   
    13     5     6 1   
    14     5     9 1   
    15     5    25 1   
    16     6     7 1   
    17     6    26 1   
    18     6    27 1   
    19     7     8 1   
    20     7    28 1   
    21     7    29 1   
    22     8    15 1   
    23     8    30 1   
    24     8    31 1   
    25     9    15 1   
    26     9    32 1   
    27     9    33 1   
    28    10    15 1   
    29    10    16 ar  
    30    11    16 ar  
    31    11    17 ar  
    32    11    34 1   
    33    12    17 ar  
    34    12    18 1   
    35    13    14 2   
    36    13    18 1   
    37    13    35 1   
    38    14    36 1   
    39    18    37 1   
@<TRIPOS>SUBSTRUCTURE
     1 WVG         1 TEMP              0 ****  ****    0 ROOT
