@<TRIPOS>MOLECULE
WVG
   37    39     1     0     0
SMALL
No Charge or Current Charge


@<TRIPOS>ATOM
      1 C20        -46.8570   -28.8540     5.1390 ca         1 WVG      -0.254800
      2 C02        -43.5670   -33.6030    -1.5140 c          1 WVG       0.705000
      3 C04        -44.5780   -32.5040    -1.1400 c3         1 WVG      -0.197400
      4 C05        -44.4700   -32.1660     0.3710 c3         1 WVG      -0.057400
      5 C06        -45.3220   -30.9510     0.8540 c6         1 WVG      -0.081700
      6 C07        -46.8530   -31.1660     0.6790 c6         1 WVG      -0.070400
      7 C08        -47.6730   -29.9310     1.1520 c6         1 WVG      -0.095400
      8 C09        -46.8480   -28.9320     2.0060 c6         1 WVG       0.223800
      9 C11        -44.9980   -30.6090     2.3430 c6         1 WVG       0.221800
     10 C12        -45.7910   -29.1800     4.2810 ca         1 WVG       0.446900
     11 C14        -44.3700   -28.6030     6.0020 ca         1 WVG       0.180900
     12 C16        -46.6080   -28.3980     6.4090 ca         1 WVG       0.146500
     13 C18        -48.9070   -28.4950     6.1670 cc         1 WVG      -0.203100
     14 C19        -48.2940   -28.9230     5.0030 cd         1 WVG      -0.193200
     15 N10        -45.9700   -29.6530     2.9620 nh         1 WVG      -0.767300
     16 N13        -44.5240   -29.0600     4.7360 nb         1 WVG      -0.300000
     17 N15        -45.3530   -28.2600     6.8690 nb         1 WVG      -0.260000
     18 N17        -47.8310   -28.1710     7.0220 na         1 WVG      -0.330400
     19 O01        -42.4430   -33.2630    -1.8520 o          1 WVG      -0.741500
     20 O03        -43.9150   -34.7690    -1.4080 o          1 WVG      -0.741500
     21 H042       -44.3460   -31.5750    -1.6750 hc         1 WVG       0.018200
     22 H041       -45.6010   -32.8650    -1.3030 hc         1 WVG       0.018200
     23 H052       -44.7370   -33.0600     0.9500 hc         1 WVG       0.045700
     24 H051       -43.4140   -31.9670     0.5960 hc         1 WVG       0.045700
     25 H061       -45.0170   -30.0970     0.2310 hc         1 WVG       0.041700
     26 H071       -47.1010   -31.3800    -0.3690 hc         1 WVG       0.052200
     27 H072       -47.1610   -32.0490     1.2560 hc         1 WVG       0.052200
     28 H082       -48.0830   -29.3990     0.2830 hc         1 WVG       0.038200
     29 H081       -48.5390   -30.2780     1.7310 hc         1 WVG       0.038200
     30 H092       -46.2280   -28.3150     1.3390 h1         1 WVG       0.048200
     31 H091       -47.5290   -28.2390     2.5200 h1         1 WVG       0.048200
     32 H112       -45.0050   -31.5430     2.9250 h1         1 WVG       0.060700
     33 H111       -43.9750   -30.2060     2.3910 h1         1 WVG       0.060700
     34 H141       -43.3470   -28.5030     6.3620 h5         1 WVG       0.039100
     35 H181       -49.9560   -28.4100     6.4460 h4         1 WVG       0.208000
     36 H191       -48.8290   -29.2810     4.1260 ha         1 WVG       0.200000
     37 H171       -47.9240   -27.8220     7.9710 hn         1 WVG       0.353000
@<TRIPOS>BOND
     1     1    10 ar  
     2     1    12 ar  
     3     1    14 1   
     4     2     3 1   
     5     2    19 1   
     6     2    20 1   
     7     3     4 1   
     8     3    21 1   
     9     3    22 1   
    10     4     5 1   
    11     4    23 1   
    12     4    24 1   
    13     5     6 1   
    14     5     9 1   
    15     5    25 1   
    16     6     7 1   
    17     6    26 1   
    18     6    27 1   
    19     7     8 1   
    20     7    28 1   
    21     7    29 1   
    22     8    15 1   
    23     8    30 1   
    24     8    31 1   
    25     9    15 1   
    26     9    32 1   
    27     9    33 1   
    28    10    15 1   
    29    10    16 ar  
    30    11    16 ar  
    31    11    17 ar  
    32    11    34 1   
    33    12    17 ar  
    34    12    18 1   
    35    13    14 2   
    36    13    18 1   
    37    13    35 1   
    38    14    36 1   
    39    18    37 1   
@<TRIPOS>SUBSTRUCTURE
     1 WVG         1 TEMP              0 ****  ****    0 ROOT
