@<TRIPOS>MOLECULE
WVH
   73    78     1     0     0
SMALL
abcg2


@<TRIPOS>ATOM
      1 O1           4.5710    -2.1970    -1.0770 o          1 WVH      -0.558100
      2 C5           4.8610    -1.2560    -0.3720 c          1 WVH       0.600100
      3 N1           5.9550    -1.2010     0.4340 ns         1 WVH      -0.142000
      4 C4           6.9770    -2.1280     0.5840 ca         1 WVH       0.023000
      5 C3           8.0240    -1.7980     1.4480 ca         1 WVH      -0.209000
      6 C2           9.0620    -2.6920     1.6200 ca         1 WVH       0.356900
      7 N            9.1350    -3.8700     1.0070 nb         1 WVH      -0.684000
      8 C1           8.1350    -4.1760     0.1910 ca         1 WVH       0.356900
      9 C            7.0410    -3.3630    -0.0620 ca         1 WVH      -0.209000
     10 C6           4.0470     0.0380    -0.3730 c3         1 WVH       0.042700
     11 C24          4.5770     0.9630    -1.4840 c3         1 WVH      -0.010200
     12 C25          3.7890     2.2230    -1.5880 cc         1 WVH      -0.151400
     13 C28          3.7500     3.2940    -0.6370 ca         1 WVH      -0.092800
     14 C29          4.4090     3.5440     0.5730 ca         1 WVH      -0.063000
     15 C30          4.1360     4.7140     1.2540 ca         1 WVH      -0.134000
     16 C31          3.2140     5.6470     0.7500 ca         1 WVH      -0.088000
     17 C32          2.5500     5.4290    -0.4410 ca         1 WVH      -0.126000
     18 C27          2.8270     4.2460    -1.1250 ca         1 WVH      -0.047200
     19 N5           2.3360     3.7700    -2.3050 na         1 WVH      -0.221700
     20 C26          2.9110     2.5620    -2.5800 cd         1 WVH      -0.158100
     21 N2           2.6590    -0.2380    -0.5890 ns         1 WVH      -0.488900
     22 C7           1.9280    -0.8960     0.3310 c          1 WVH       0.632700
     23 O            2.4380    -1.3560     1.3430 o          1 WVH      -0.588100
     24 C8           0.4750    -0.9790     0.0450 ca         1 WVH      -0.239600
     25 C23         -0.2970    -2.0670     0.4360 ca         1 WVH       0.272000
     26 F2           0.2990    -3.1240     1.0010 f          1 WVH      -0.154000
     27 C22         -1.6560    -2.1440     0.2450 ca         1 WVH      -0.241000
     28 C11         -2.3520    -1.0840    -0.3630 ca         1 WVH       0.368000
     29 C10         -1.5890     0.0320    -0.7580 ca         1 WVH      -0.218000
     30 C9          -0.2230     0.0650    -0.5630 ca         1 WVH      -0.023000
     31 N3          -3.7080    -1.1530    -0.5770 nh         1 WVH      -0.791400
     32 C21         -4.3860     0.0090    -1.1290 c6         1 WVH       0.168800
     33 C20         -5.7640    -0.3590    -1.6750 c6         1 WVH       0.185800
     34 N4          -6.5960    -1.1120    -0.7610 nh         1 WVH      -0.772400
     35 C13         -5.8740    -2.2870    -0.3000 c6         1 WVH       0.185800
     36 C12         -4.5390    -1.9310     0.3320 c6         1 WVH       0.168800
     37 C14         -7.4020    -0.4270     0.1510 ca         1 WVH       0.226000
     38 C19         -8.5010    -1.0750     0.7290 ca         1 WVH       0.174000
     39 F1          -8.7500    -2.3500     0.3920 f          1 WVH      -0.169000
     40 C18         -9.3610    -0.4710     1.6200 ca         1 WVH      -0.176000
     41 C17         -9.1490     0.8610     1.9230 ca         1 WVH       0.176000
     42 F           -9.9840     1.4680     2.7810 f          1 WVH      -0.172000
     43 C16         -8.1140     1.5710     1.3590 ca         1 WVH      -0.145000
     44 C15         -7.2480     0.9180     0.4900 ca         1 WVH      -0.118000
     45 H1           6.0530    -0.3690     0.9980 hn         1 WVH       0.154000
     46 H6           4.1630     0.5420     0.5930 h1         1 WVH       0.074700
     47 H3           8.0300    -0.8540     1.9780 ha         1 WVH       0.136000
     48 H            6.2750    -3.7010    -0.7390 ha         1 WVH       0.136000
     49 H2           9.8780    -2.4380     2.2880 h4         1 WVH       0.017100
     50 HA           8.1940    -5.1370    -0.3070 h4         1 WVH       0.017100
     51 H241         5.6280     1.1790    -1.2730 hc         1 WVH       0.061700
     52 H242         4.5550     0.4260    -2.4360 hc         1 WVH       0.061700
     53 HB           2.2500     0.0160    -1.4740 hn         1 WVH       0.327500
     54 H26          2.6520     2.0240    -3.4790 h4         1 WVH       0.214000
     55 H29          5.1260     2.8380     0.9740 ha         1 WVH       0.109000
     56 H30          4.6370     4.9190     2.1910 ha         1 WVH       0.114000
     57 H31          3.0220     6.5560     1.3060 ha         1 WVH       0.113000
     58 H32          1.8420     6.1500    -0.8290 ha         1 WVH       0.114000
     59 H5           1.6670     4.2360    -2.8930 hn         1 WVH       0.352000
     60 H9           0.3050     0.9630    -0.8600 ha         1 WVH       0.115000
     61 H22         -2.1520    -3.0490     0.5620 ha         1 WVH       0.135000
     62 H10         -2.0510     0.9010    -1.2010 ha         1 WVH       0.115000
     63 H211        -4.4570     0.8070    -0.3790 h1         1 WVH       0.049950
     64 H212        -3.8160     0.4050    -1.9680 h1         1 WVH       0.049950
     65 H121        -4.0490    -2.8640     0.5960 h1         1 WVH       0.049950
     66 H122        -4.7050    -1.3780     1.2670 h1         1 WVH       0.049950
     67 H201        -6.2780     0.5470    -1.9960 h1         1 WVH       0.069700
     68 H202        -5.6240    -0.9760    -2.5680 h1         1 WVH       0.069700
     69 H131        -6.4570    -2.8500     0.4230 h1         1 WVH       0.069700
     70 H132        -5.7040    -2.9440    -1.1580 h1         1 WVH       0.069700
     71 H15         -6.4350     1.4930     0.0710 ha         1 WVH       0.118000
     72 H18        -10.1920    -1.0220     2.0410 ha         1 WVH       0.151000
     73 H16         -7.9620     2.6150     1.5980 ha         1 WVH       0.136000
@<TRIPOS>BOND
     1     1     2 2   
     2     2     3 1   
     3     2    10 1   
     4     3     4 1   
     5     3    45 1   
     6     4     5 ar  
     7     4     9 ar  
     8     5     6 ar  
     9     5    47 1   
    10     6     7 ar  
    11     6    49 1   
    12     7     8 ar  
    13     8     9 ar  
    14     8    50 1   
    15     9    48 1   
    16    10    11 1   
    17    10    21 1   
    18    10    46 1   
    19    11    12 1   
    20    11    51 1   
    21    11    52 1   
    22    12    13 1   
    23    12    20 2   
    24    13    14 ar  
    25    13    18 ar  
    26    14    15 ar  
    27    14    55 1   
    28    15    16 ar  
    29    15    56 1   
    30    16    17 ar  
    31    16    57 1   
    32    17    18 ar  
    33    17    58 1   
    34    18    19 1   
    35    19    20 1   
    36    19    59 1   
    37    20    54 1   
    38    21    22 1   
    39    21    53 1   
    40    22    23 2   
    41    22    24 1   
    42    24    25 ar  
    43    24    30 ar  
    44    25    26 1   
    45    25    27 ar  
    46    27    28 ar  
    47    27    61 1   
    48    28    29 ar  
    49    28    31 1   
    50    29    30 ar  
    51    29    62 1   
    52    30    60 1   
    53    31    32 1   
    54    31    36 1   
    55    32    33 1   
    56    32    63 1   
    57    32    64 1   
    58    33    34 1   
    59    33    67 1   
    60    33    68 1   
    61    34    35 1   
    62    34    37 1   
    63    35    36 1   
    64    35    69 1   
    65    35    70 1   
    66    36    65 1   
    67    36    66 1   
    68    37    38 ar  
    69    37    44 ar  
    70    38    39 1   
    71    38    40 ar  
    72    40    41 ar  
    73    40    72 1   
    74    41    42 1   
    75    41    43 ar  
    76    43    44 ar  
    77    43    73 1   
    78    44    71 1   
@<TRIPOS>SUBSTRUCTURE
     1 WVH         1 TEMP              0 ****  ****    0 ROOT
