@<TRIPOS>MOLECULE
WVH
   73    78     1     0     0
SMALL
No Charge or Current Charge


@<TRIPOS>ATOM
      1 O1           4.2640    -2.0270    -1.6580 o          1 WVH      -0.558100
      2 C5           4.8630    -1.1880    -0.9900 c          1 WVH       0.600100
      3 N1           6.2440    -1.1570    -0.8410 ns         1 WVH      -0.142000
      4 C4           7.2780    -1.9800    -1.3620 ca         1 WVH       0.023000
      5 C3           8.6060    -1.6920    -1.0070 ca         1 WVH      -0.209000
      6 C2           9.6500    -2.4860    -1.5070 ca         1 WVH       0.356900
      7 N            9.4430    -3.5380    -2.3300 nb         1 WVH      -0.684000
      8 C1           8.1670    -3.8200    -2.6770 ca         1 WVH       0.356900
      9 C            7.0660    -3.0760    -2.2220 ca         1 WVH      -0.209000
     10 C6           4.1210    -0.0570    -0.2230 c3         1 WVH       0.042700
     11 C24          4.3430     1.3200    -0.9030 c3         1 WVH      -0.010200
     12 C25          3.6690     2.4640    -0.1880 cc         1 WVH      -0.151400
     13 C28          4.0710     3.0570     1.0560 ca         1 WVH      -0.092800
     14 C29          5.1580     2.7640     1.8920 ca         1 WVH      -0.063000
     15 C30          5.3080     3.5240     3.0720 ca         1 WVH      -0.134000
     16 C31          4.3810     4.5460     3.3850 ca         1 WVH      -0.088000
     17 C32          3.2990     4.8160     2.5200 ca         1 WVH      -0.126000
     18 C27          3.1760     4.0450     1.3550 ca         1 WVH      -0.047200
     19 N5           2.2040     4.1390     0.3760 na         1 WVH      -0.221700
     20 C26          2.5220     3.1470    -0.5840 cd         1 WVH      -0.158100
     21 N2           2.6710    -0.3560    -0.1200 ns         1 WVH      -0.488900
     22 C7           1.9020    -0.1920     1.0130 c          1 WVH       0.632700
     23 O            2.4110     0.1140     2.0810 o          1 WVH      -0.588100
     24 C8           0.4150    -0.3990     0.8330 ca         1 WVH      -0.239600
     25 C23         -0.4400    -0.5540     1.9490 ca         1 WVH       0.272000
     26 F2           0.0420    -0.5590     3.2120 f          1 WVH      -0.154000
     27 C22         -1.8180    -0.7370     1.7810 ca         1 WVH      -0.241000
     28 C11         -2.3860    -0.7660     0.5050 ca         1 WVH       0.368000
     29 C10         -1.5500    -0.6100    -0.6120 ca         1 WVH      -0.218000
     30 C9          -0.1670    -0.4270    -0.4570 ca         1 WVH      -0.023000
     31 N3          -3.7790    -0.9540     0.3650 nh         1 WVH      -0.791400
     32 C21         -4.3610    -1.5680    -0.8720 c6         1 WVH       0.168800
     33 C20         -5.7690    -2.2030    -0.6280 c6         1 WVH       0.185800
     34 N4          -6.7150    -1.2620     0.0550 nh         1 WVH      -0.772400
     35 C13         -6.1410    -0.6380     1.2890 c6         1 WVH       0.185800
     36 C12         -4.7290    -0.0110     1.0420 c6         1 WVH       0.168800
     37 C14         -7.8590    -0.7160    -0.5920 ca         1 WVH       0.226000
     38 C19         -9.0860    -0.5060     0.0980 ca         1 WVH       0.174000
     39 F1          -9.2150    -0.8450     1.4040 f          1 WVH      -0.169000
     40 C18        -10.2000     0.0400    -0.5610 ca         1 WVH      -0.176000
     41 C17        -10.1080     0.3860    -1.9150 ca         1 WVH       0.176000
     42 F          -11.1780     0.9110    -2.5480 f          1 WVH      -0.172000
     43 C16         -8.9080     0.1900    -2.6140 ca         1 WVH      -0.145000
     44 C15         -7.7910    -0.3570    -1.9570 ca         1 WVH      -0.118000
     45 H1           6.5810    -0.4070    -0.2510 hn         1 WVH       0.154000
     46 H6           4.5530    -0.0240     0.7860 h1         1 WVH       0.074700
     47 H3           8.8400    -0.8600    -0.3480 ha         1 WVH       0.136000
     48 H            6.0770    -3.3720    -2.5500 ha         1 WVH       0.136000
     49 H2          10.6850    -2.2750    -1.2400 h4         1 WVH       0.017100
     50 HA           8.0230    -4.6710    -3.3420 h4         1 WVH       0.017100
     51 H241         5.4180     1.5270    -0.9680 hc         1 WVH       0.061700
     52 H242         3.9800     1.2700    -1.9370 hc         1 WVH       0.061700
     53 HB           2.1920    -0.6800    -0.9500 hn         1 WVH       0.327500
     54 H26          1.9100     2.9960    -1.4700 h4         1 WVH       0.214000
     55 H29          5.8660     1.9770     1.6430 ha         1 WVH       0.109000
     56 H30          6.1390     3.3220     3.7430 ha         1 WVH       0.114000
     57 H31          4.5030     5.1280     4.2970 ha         1 WVH       0.113000
     58 H32          2.5820     5.6000     2.7510 ha         1 WVH       0.114000
     59 H5           1.4220     4.7870     0.3520 hn         1 WVH       0.352000
     60 H9           0.4320    -0.2880    -1.3540 ha         1 WVH       0.115000
     61 H22         -2.4450    -0.8720     2.6560 ha         1 WVH       0.135000
     62 H10         -1.9690    -0.6140    -1.6140 ha         1 WVH       0.115000
     63 H211        -4.4530    -0.8020    -1.6560 h1         1 WVH       0.049950
     64 H212        -3.6940    -2.3530    -1.2580 h1         1 WVH       0.049950
     65 H121        -4.3280     0.3240     2.0090 h1         1 WVH       0.049950
     66 H122        -4.8530     0.8870     0.4200 h1         1 WVH       0.049950
     67 H201        -6.1790    -2.5510    -1.5870 h1         1 WVH       0.069700
     68 H202        -5.6410    -3.1020    -0.0070 h1         1 WVH       0.069700
     69 H131        -6.8050     0.1480     1.6770 h1         1 WVH       0.069700
     70 H132        -6.0570    -1.3960     2.0810 h1         1 WVH       0.069700
     71 H15         -6.8650    -0.4890    -2.5100 ha         1 WVH       0.118000
     72 H18        -11.1320     0.1910    -0.0230 ha         1 WVH       0.151000
     73 H16         -8.8440     0.4660    -3.6640 ha         1 WVH       0.136000
@<TRIPOS>BOND
     1     1     2 2   
     2     2     3 1   
     3     2    10 1   
     4     3     4 1   
     5     3    45 1   
     6     4     5 ar  
     7     4     9 ar  
     8     5     6 ar  
     9     5    47 1   
    10     6     7 ar  
    11     6    49 1   
    12     7     8 ar  
    13     8     9 ar  
    14     8    50 1   
    15     9    48 1   
    16    10    11 1   
    17    10    21 1   
    18    10    46 1   
    19    11    12 1   
    20    11    51 1   
    21    11    52 1   
    22    12    13 1   
    23    12    20 2   
    24    13    14 ar  
    25    13    18 ar  
    26    14    15 ar  
    27    14    55 1   
    28    15    16 ar  
    29    15    56 1   
    30    16    17 ar  
    31    16    57 1   
    32    17    18 ar  
    33    17    58 1   
    34    18    19 1   
    35    19    20 1   
    36    19    59 1   
    37    20    54 1   
    38    21    22 1   
    39    21    53 1   
    40    22    23 2   
    41    22    24 1   
    42    24    25 ar  
    43    24    30 ar  
    44    25    26 1   
    45    25    27 ar  
    46    27    28 ar  
    47    27    61 1   
    48    28    29 ar  
    49    28    31 1   
    50    29    30 ar  
    51    29    62 1   
    52    30    60 1   
    53    31    32 1   
    54    31    36 1   
    55    32    33 1   
    56    32    63 1   
    57    32    64 1   
    58    33    34 1   
    59    33    67 1   
    60    33    68 1   
    61    34    35 1   
    62    34    37 1   
    63    35    36 1   
    64    35    69 1   
    65    35    70 1   
    66    36    65 1   
    67    36    66 1   
    68    37    38 ar  
    69    37    44 ar  
    70    38    39 1   
    71    38    40 ar  
    72    40    41 ar  
    73    40    72 1   
    74    41    42 1   
    75    41    43 ar  
    76    43    44 ar  
    77    43    73 1   
    78    44    71 1   
@<TRIPOS>SUBSTRUCTURE
     1 WVH         1 TEMP              0 ****  ****    0 ROOT
