@<TRIPOS>MOLECULE
WVI
   21    22     1     0     0
SMALL
abcg2


@<TRIPOS>ATOM
      1 C1          -1.0580     2.5590    -0.4190 c3         1 WVI      -0.127400
      2 C4          -1.5790    -1.0360     0.1520 cc         1 WVI       0.246000
      3 C5          -0.6840    -0.0020    -0.1020 cd         1 WVI      -0.215000
      4 C6          -1.4980     1.1590    -0.1630 cd         1 WVI       0.306300
      5 N7          -2.7640     0.8650     0.0240 nc         1 WVI      -0.524800
      6 C9           1.4380    -1.0530    -1.0310 cc         1 WVI      -0.167000
      7 C10          0.7490    -0.1290    -0.2920 cd         1 WVI      -0.083000
      8 S11          1.8550     0.9420     0.5000 ss         1 WVI       0.196000
      9 C12          3.2200     0.1580    -0.1800 cd         1 WVI      -0.252000
     10 N           -2.7920    -0.4680     0.2190 na         1 WVI      -0.041200
     11 C13          2.8480    -0.8910    -0.9630 cc         1 WVI      -0.126000
     12 H11C        -0.3880     2.6120    -1.2780 hc         1 WVI       0.051033
     13 H12C        -1.9160     3.1990    -0.6150 hc         1 WVI       0.051033
     14 H13C        -0.5190     2.9760     0.4340 hc         1 WVI       0.051033
     15 H31N        -0.4540    -2.6940     0.1190 hn         1 WVI       0.458500
     16 H32N        -2.0880    -2.9930     0.0810 hn         1 WVI       0.458500
     17 H           -3.6690    -0.9300     0.3970 hn         1 WVI       0.371000
     18 H9           0.9510    -1.8090    -1.6320 ha         1 WVI       0.122000
     19 H13          3.5520    -1.5200    -1.4890 ha         1 WVI       0.130000
     20 H12          4.2160     0.5200     0.0210 h4         1 WVI       0.148000
     21 N3          -1.3640    -2.3650     0.3980 nv         1 WVI      -1.054000
@<TRIPOS>BOND
     1     1     4 1   
     2     1    12 1   
     3     1    13 1   
     4     1    14 1   
     5     2     3 2   
     6     2    10 1   
     7     2    21 1   
     8     3     4 1   
     9     3     7 1   
    10     4     5 2   
    11     5    10 1   
    12     6     7 2   
    13     6    11 1   
    14     6    18 1   
    15     7     8 1   
    16     8     9 1   
    17     9    11 2   
    18     9    20 1   
    19    10    17 1   
    20    11    19 1   
    21    15    21 1   
    22    16    21 1   
@<TRIPOS>SUBSTRUCTURE
     1 WVI         1 TEMP              0 ****  ****    0 ROOT
