@<TRIPOS>MOLECULE
WVI
   21    22     1     0     0
SMALL
No Charge or Current Charge


@<TRIPOS>ATOM
      1 C1          -1.0640     2.6320    -0.0960 c3         1 WVI      -0.127400
      2 C4          -1.5570    -1.0520    -0.1730 cc         1 WVI       0.246000
      3 C5          -0.6910     0.0120    -0.2280 cd         1 WVI      -0.215000
      4 C6          -1.4930     1.1880    -0.1010 cd         1 WVI       0.306300
      5 N7          -2.7820     0.9150     0.0150 nc         1 WVI      -0.524800
      6 C9           1.4720    -1.2150    -0.5680 cc         1 WVI      -0.167000
      7 C10          0.7600    -0.0510    -0.3790 cd         1 WVI      -0.083000
      8 S11          1.8520     1.3570    -0.3680 ss         1 WVI       0.196000
      9 C12          3.2530     0.2980    -0.6020 cd         1 WVI      -0.252000
     10 N           -2.8090    -0.4700    -0.0340 na         1 WVI      -0.041200
     11 C13          2.8700    -1.0130    -0.6900 cc         1 WVI      -0.126000
     12 H11C        -0.5430     2.8900    -1.0240 hc         1 WVI       0.051033
     13 H12C        -1.9230     3.3080    -0.0080 hc         1 WVI       0.051033
     14 H13C        -0.4000     2.8420     0.7500 hc         1 WVI       0.051033
     15 H31N        -0.4800    -2.7990    -0.0410 hn         1 WVI       0.458500
     16 H32N        -2.1930    -3.0150     0.0390 hn         1 WVI       0.458500
     17 H           -3.6840    -0.9820     0.0340 hn         1 WVI       0.371000
     18 H9           1.0620    -2.2110    -0.6430 ha         1 WVI       0.122000
     19 H13          3.5620    -1.8370    -0.8450 ha         1 WVI       0.130000
     20 H12          4.2510     0.7150    -0.6640 h4         1 WVI       0.148000
     21 N3          -1.4060    -2.4100    -0.1920 nv         1 WVI      -1.054000
@<TRIPOS>BOND
     1     1     4 1   
     2     1    12 1   
     3     1    13 1   
     4     1    14 1   
     5     2     3 2   
     6     2    10 1   
     7     2    21 1   
     8     3     4 1   
     9     3     7 1   
    10     4     5 2   
    11     5    10 1   
    12     6     7 2   
    13     6    11 1   
    14     6    18 1   
    15     7     8 1   
    16     8     9 1   
    17     9    11 2   
    18     9    20 1   
    19    10    17 1   
    20    11    19 1   
    21    15    21 1   
    22    16    21 1   
@<TRIPOS>SUBSTRUCTURE
     1 WVI         1 TEMP              0 ****  ****    0 ROOT
