@<TRIPOS>MOLECULE
WVK
   25    26     1     0     0
SMALL
abcg2


@<TRIPOS>ATOM
      1 S           55.6320    18.2940    14.1920 ss         1 WVK       0.221000
      2 C1          55.1720    21.4220    13.5830 ce         1 WVK      -0.320200
      3 N1          55.2400    24.2670     9.9930 nb         1 WVK      -0.206000
      4 C2          55.0230    20.9480    14.8280 cf         1 WVK      -0.035200
      5 N2          54.8190    25.4790    11.9830 nb         1 WVK      -0.206000
      6 C3          55.2010    19.5860    15.2570 cd         1 WVK      -0.213800
      7 C4          55.0560    19.1230    16.5410 cc         1 WVK      -0.098000
      8 C5          55.2910    17.7330    16.6620 cc         1 WVK      -0.136000
      9 C6          55.6120    17.1570    15.4680 cd         1 WVK      -0.231000
     10 C7          55.0580    24.3660    11.3090 ca         1 WVK       0.257900
     11 C8          55.1690    25.3900     9.2990 ca         1 WVK       0.141400
     12 C9          54.9170    26.6160     9.8950 ca         1 WVK      -0.261000
     13 N           55.1520    23.1560    11.9690 ns         1 WVK      -0.317900
     14 C           54.9480    22.8530    13.2950 c          1 WVK       0.623300
     15 O           54.6180    23.6610    14.1390 o          1 WVK      -0.534100
     16 C10         54.7490    26.5940    11.2670 ca         1 WVK       0.141400
     17 H1          55.4620    20.7710    12.7650 ha         1 WVK       0.183000
     18 H2          54.7380    21.6370    15.6160 ha         1 WVK       0.203000
     19 H3          54.7880    19.7690    17.3670 ha         1 WVK       0.139000
     20 H4          55.2250    17.1850    17.5900 ha         1 WVK       0.139000
     21 H5          55.8370    16.1190    15.2740 h4         1 WVK       0.153000
     22 H6          55.3180    25.3090     8.2280 h4         1 WVK       0.026100
     23 H7          54.8580    27.5300     9.3230 ha         1 WVK       0.137000
     24 H8          55.3830    22.3890    11.3540 hn         1 WVK       0.169000
     25 H9          54.5520    27.5060    11.8190 h4         1 WVK       0.026100
@<TRIPOS>BOND
     1     1     6 1   
     2     1     9 1   
     3     2     4 2   
     4     2    14 1   
     5     2    17 1   
     6     3    10 ar  
     7     3    11 ar  
     8     4     6 1   
     9     4    18 1   
    10     5    10 ar  
    11     5    16 ar  
    12     6     7 2   
    13     7     8 1   
    14     7    19 1   
    15     8     9 2   
    16     8    20 1   
    17     9    21 1   
    18    10    13 1   
    19    11    12 ar  
    20    11    22 1   
    21    12    16 ar  
    22    12    23 1   
    23    13    14 1   
    24    13    24 1   
    25    14    15 2   
    26    16    25 1   
@<TRIPOS>SUBSTRUCTURE
     1 WVK         1 TEMP              0 ****  ****    0 ROOT
