@<TRIPOS>MOLECULE
WVK
   25    26     1     0     0
SMALL
No Charge or Current Charge


@<TRIPOS>ATOM
      1 S           55.9010    18.3150    14.2290 ss         1 WVK       0.221000
      2 C1          55.1590    21.4670    13.6490 ce         1 WVK      -0.320200
      3 N1          54.9720    24.2580     9.9320 nb         1 WVK      -0.206000
      4 C2          54.9100    20.9200    14.8730 cf         1 WVK      -0.035200
      5 N2          55.1400    25.5550    11.9660 nb         1 WVK      -0.206000
      6 C3          55.1770    19.5440    15.2950 cd         1 WVK      -0.213800
      7 C4          54.9160    19.0180    16.5340 cc         1 WVK      -0.098000
      8 C5          55.2760    17.6550    16.6680 cc         1 WVK      -0.136000
      9 C6          55.8190    17.1150    15.5320 cd         1 WVK      -0.231000
     10 C7          55.0810    24.4010    11.2670 ca         1 WVK       0.257900
     11 C8          54.8900    25.3990     9.2180 ca         1 WVK       0.141400
     12 C9          54.9270    26.6580     9.8440 ca         1 WVK      -0.261000
     13 N           55.2030    23.1910    11.9770 ns         1 WVK      -0.317900
     14 C           54.8660    22.8780    13.2780 c          1 WVK       0.623300
     15 O           54.3620    23.6700    14.0620 o          1 WVK      -0.534100
     16 C10         55.0570    26.6900    11.2430 ca         1 WVK       0.141400
     17 H1          55.6040    20.8530    12.8700 ha         1 WVK       0.183000
     18 H2          54.4620    21.5590    15.6410 ha         1 WVK       0.203000
     19 H3          54.4740    19.5790    17.3530 ha         1 WVK       0.139000
     20 H4          55.1280    17.1040    17.5930 ha         1 WVK       0.139000
     21 H5          56.1740    16.1040    15.3680 h4         1 WVK       0.153000
     22 H6          54.7960    25.3010     8.1370 h4         1 WVK       0.026100
     23 H7          54.8620    27.5750     9.2640 ha         1 WVK       0.137000
     24 H8          55.5640    22.4220    11.4290 hn         1 WVK       0.169000
     25 H9          55.0970    27.6300    11.7910 h4         1 WVK       0.026100
@<TRIPOS>BOND
     1     1     6 1   
     2     1     9 1   
     3     2     4 2   
     4     2    14 1   
     5     2    17 1   
     6     3    10 ar  
     7     3    11 ar  
     8     4     6 1   
     9     4    18 1   
    10     5    10 ar  
    11     5    16 ar  
    12     6     7 2   
    13     7     8 1   
    14     7    19 1   
    15     8     9 2   
    16     8    20 1   
    17     9    21 1   
    18    10    13 1   
    19    11    12 ar  
    20    11    22 1   
    21    12    16 ar  
    22    12    23 1   
    23    13    14 1   
    24    13    24 1   
    25    14    15 2   
    26    16    25 1   
@<TRIPOS>SUBSTRUCTURE
     1 WVK         1 TEMP              0 ****  ****    0 ROOT
