@<TRIPOS>MOLECULE
WVL
   25    24     1     0     0
SMALL
abcg2


@<TRIPOS>ATOM
      1 C          -24.1300    12.8580    -3.7560 c          1 WVL       0.718000
      2 CA         -23.9320    13.4400    -2.3330 c3         1 WVL       0.026500
      3 O          -23.5710    13.4660    -4.6910 o          1 WVL      -0.725500
      4 CB         -24.5470    14.8470    -2.2540 c3         1 WVL      -0.016500
      5 CG2        -24.3570    15.4830    -0.8740 c3         1 WVL      -0.081100
      6 CG1        -26.0120    14.7750    -2.5720 c2         1 WVL      -0.159200
      7 CD         -26.6950    15.4380    -3.5070 c2         1 WVL      -0.141400
      8 CE1        -28.1760    15.2430    -3.6650 c3         1 WVL      -0.038900
      9 CE2        -26.1000    16.4170    -4.4770 c3         1 WVL      -0.038900
     10 N          -22.5050    13.4960    -2.0150 n8         1 WVL      -0.972200
     11 OXT        -24.8330    11.8310    -3.8500 o          1 WVL      -0.725500
     12 H1         -24.4840    12.7990    -1.6270 h1         1 WVL       0.000700
     13 H2         -24.0260    15.4640    -2.9900 hc         1 WVL       0.078700
     14 H3         -23.3030    15.5990    -0.6200 hc         1 WVL       0.015033
     15 H4         -24.8080    16.4750    -0.8410 hc         1 WVL       0.015033
     16 H5         -24.8280    14.8810    -0.0930 hc         1 WVL       0.015033
     17 H6         -26.5750    14.0990    -1.9290 ha         1 WVL       0.153000
     18 H7         -28.5740    14.5200    -2.9520 hc         1 WVL       0.025867
     19 H8         -28.7150    16.1840    -3.5260 hc         1 WVL       0.025867
     20 H9         -28.4210    14.8930    -4.6710 hc         1 WVL       0.025867
     21 H10        -25.0300    16.5630    -4.3480 hc         1 WVL       0.025867
     22 H11        -26.2710    16.0890    -5.5060 hc         1 WVL       0.025867
     23 H12        -26.5840    17.3920    -4.3820 hc         1 WVL       0.025867
     24 H13        -22.3910    13.6650    -1.0230 hn         1 WVL       0.362500
     25 H14        -22.0930    12.5840    -2.1710 hn         1 WVL       0.362500
@<TRIPOS>BOND
     1     1     2 1   
     2     1     3 1   
     3     1    11 1   
     4     2     4 1   
     5     2    10 1   
     6     2    12 1   
     7     4     5 1   
     8     4     6 1   
     9     4    13 1   
    10     5    14 1   
    11     5    15 1   
    12     5    16 1   
    13     6     7 2   
    14     6    17 1   
    15     7     8 1   
    16     7     9 1   
    17     8    18 1   
    18     8    19 1   
    19     8    20 1   
    20     9    21 1   
    21     9    22 1   
    22     9    23 1   
    23    10    24 1   
    24    10    25 1   
@<TRIPOS>SUBSTRUCTURE
     1 WVL         1 TEMP              0 ****  ****    0 ROOT
