@<TRIPOS>MOLECULE
WVL
   25    24     1     0     0
SMALL
No Charge or Current Charge


@<TRIPOS>ATOM
      1 C          -24.1630    12.4380    -3.6070 c          1 WVL       0.718000
      2 CA         -23.8500    13.3220    -2.3220 c3         1 WVL       0.026500
      3 O          -23.7890    12.8310    -4.7070 o          1 WVL      -0.725500
      4 CB         -24.5040    14.7380    -2.4330 c3         1 WVL      -0.016500
      5 CG2        -24.3430    15.5830    -1.1440 c3         1 WVL      -0.081100
      6 CG1        -25.9860    14.6380    -2.7810 c2         1 WVL      -0.159200
      7 CD         -26.7220    15.4960    -3.5150 c2         1 WVL      -0.141400
      8 CE1        -28.1960    15.2620    -3.7960 c3         1 WVL      -0.038900
      9 CE2        -26.2160    16.7850    -4.1470 c3         1 WVL      -0.038900
     10 N          -22.3950    13.4140    -1.9290 n8         1 WVL      -0.972200
     11 OXT        -24.6990    11.3490    -3.4390 o          1 WVL      -0.725500
     12 H1         -24.3420    12.8180    -1.4790 h1         1 WVL       0.000700
     13 H2         -23.9770    15.2640    -3.2380 hc         1 WVL       0.078700
     14 H3         -23.2880    15.7810    -0.9210 hc         1 WVL       0.015033
     15 H4         -24.8430    16.5530    -1.2570 hc         1 WVL       0.015033
     16 H5         -24.7900    15.0700    -0.2840 hc         1 WVL       0.015033
     17 H6         -26.4670    13.7510    -2.3660 ha         1 WVL       0.153000
     18 H7         -28.5550    14.3310    -3.3420 hc         1 WVL       0.025867
     19 H8         -28.8080    16.0800    -3.3980 hc         1 WVL       0.025867
     20 H9         -28.3860    15.1960    -4.8740 hc         1 WVL       0.025867
     21 H10        -25.1750    17.0080    -3.8940 hc         1 WVL       0.025867
     22 H11        -26.2850    16.7390    -5.2400 hc         1 WVL       0.025867
     23 H12        -26.8130    17.6430    -3.8140 hc         1 WVL       0.025867
     24 H13        -22.3200    13.9340    -1.0490 hn         1 WVL       0.362500
     25 H14        -22.0490    12.4760    -1.6990 hn         1 WVL       0.362500
@<TRIPOS>BOND
     1     1     2 1   
     2     1     3 1   
     3     1    11 1   
     4     2     4 1   
     5     2    10 1   
     6     2    12 1   
     7     4     5 1   
     8     4     6 1   
     9     4    13 1   
    10     5    14 1   
    11     5    15 1   
    12     5    16 1   
    13     6     7 2   
    14     6    17 1   
    15     7     8 1   
    16     7     9 1   
    17     8    18 1   
    18     8    19 1   
    19     8    20 1   
    20     9    21 1   
    21     9    22 1   
    22     9    23 1   
    23    10    24 1   
    24    10    25 1   
@<TRIPOS>SUBSTRUCTURE
     1 WVL         1 TEMP              0 ****  ****    0 ROOT
