@<TRIPOS>MOLECULE
WVM
   43    45     1     0     0
SMALL
No Charge or Current Charge


@<TRIPOS>ATOM
      1 C10        -44.6740   -29.3240     5.9350 ca         1 WVM       0.180900
      2 N12        -45.5880   -28.4030     2.6070 nh         1 WVM      -0.749300
      3 C13        -44.3290   -28.3890     1.8380 c5         1 WVM       0.250800
      4 C15        -44.4480   -26.1320     0.4150 cy         1 WVM      -0.076900
      5 C17        -43.5930   -27.7170    -0.6830 cy         1 WVM      -0.076900
      6 C20        -46.7290   -28.0870     1.7110 c5         1 WVM       0.216800
      7 C21        -46.1480   -29.8120    -0.0950 c          1 WVM       0.713000
      8 C01        -49.9970   -31.1740     6.5710 c3         1 WVM      -0.123100
      9 C02        -49.9210   -29.9420     5.6430 c3         1 WVM       0.134300
     10 C04        -49.4350   -28.6490     6.3750 c3         1 WVM       0.243800
     11 C06        -46.8970   -28.8360     6.0390 ca         1 WVM       0.394900
     12 C07        -46.9010   -28.5390     4.6760 ca         1 WVM      -0.373000
     13 C08        -45.6900   -28.6750     3.9850 ca         1 WVM       0.422900
     14 C14        -44.6520   -27.6960     0.4850 cy         1 WVM      -0.087000
     15 C16        -42.9860   -26.4330    -0.0390 cy         1 WVM      -0.103400
     16 C18        -46.1060   -28.2750     0.2860 c5         1 WVM       0.058000
     17 F19        -46.8350   -27.5500    -0.6760 f          1 WVM      -0.272000
     18 N05        -48.0260   -28.7330     6.8270 nu         1 WVM      -0.954100
     19 N09        -44.5680   -29.0700     4.6170 nb         1 WVM      -0.293000
     20 N11        -45.7900   -29.2250     6.6810 nb         1 WVM      -0.329000
     21 O03        -51.2240   -29.7250     5.0750 oh         1 WVM      -0.674000
     22 O22        -47.2060   -30.4230     0.0110 o          1 WVM      -0.702500
     23 O23        -45.1580   -30.3630    -0.5620 o          1 WVM      -0.702500
     24 H101       -43.7670   -29.6410     6.4470 h5         1 WVM       0.024100
     25 H131       -43.9630   -29.4160     1.6960 h1         1 WVM       0.063200
     26 H132       -43.5410   -27.8570     2.3880 h1         1 WVM       0.063200
     27 H151       -44.5530   -25.5920     1.3630 hc         1 WVM       0.056950
     28 H152       -45.0560   -25.6180    -0.3390 hc         1 WVM       0.056950
     29 H172       -44.0170   -27.5670    -1.6840 hc         1 WVM       0.056950
     30 H171       -42.9310   -28.5890    -0.7180 hc         1 WVM       0.056950
     31 H202       -47.0650   -27.0520     1.8610 h1         1 WVM       0.049700
     32 H201       -47.5880   -28.7510     1.8790 h1         1 WVM       0.049700
     33 H013       -50.3400   -32.0570     6.0190 hc         1 WVM       0.039700
     34 H021       -49.2060   -30.1650     4.8380 h1         1 WVM       0.059700
     35 H041       -49.5540   -27.7910     5.6990 h1         1 WVM       0.056700
     36 H042       -50.0900   -28.4710     7.2390 h1         1 WVM       0.056700
     37 H071       -47.8010   -28.2070     4.1760 ha         1 WVM       0.130000
     38 H161       -42.2770   -26.6170     0.7770 hc         1 WVM       0.032200
     39 H162       -42.5420   -25.7120    -0.7340 hc         1 WVM       0.032200
     40 H051       -47.8720   -28.9700     7.8080 hn         1 WVM       0.494000
     41 H031       -51.4710   -30.5480     4.5970 ho         1 WVM       0.442000
     42 H011       -49.0090   -31.4040     6.9880 hc         1 WVM       0.039700
     43 H012       -50.6880   -30.9950     7.4030 hc         1 WVM       0.039700
@<TRIPOS>BOND
     1     1    19 ar  
     2     1    20 ar  
     3     1    24 1   
     4     2     3 1   
     5     2     6 1   
     6     2    13 1   
     7     3    14 1   
     8     3    25 1   
     9     3    26 1   
    10     4    14 1   
    11     4    15 1   
    12     4    27 1   
    13     4    28 1   
    14     5    14 1   
    15     5    15 1   
    16     5    29 1   
    17     5    30 1   
    18     6    16 1   
    19     6    31 1   
    20     6    32 1   
    21     7    16 1   
    22     7    22 1   
    23     7    23 1   
    24     8     9 1   
    25     8    33 1   
    26     8    42 1   
    27     8    43 1   
    28     9    10 1   
    29     9    21 1   
    30     9    34 1   
    31    10    18 1   
    32    10    35 1   
    33    10    36 1   
    34    11    12 ar  
    35    11    18 1   
    36    11    20 ar  
    37    12    13 ar  
    38    12    37 1   
    39    13    19 ar  
    40    14    16 1   
    41    15    38 1   
    42    15    39 1   
    43    16    17 1   
    44    18    40 1   
    45    21    41 1   
@<TRIPOS>SUBSTRUCTURE
     1 WVM         1 TEMP              0 ****  ****    0 ROOT
