@<TRIPOS>MOLECULE
WVM
   43    45     1     0     0
SMALL
abcg2


@<TRIPOS>ATOM
      1 C10        -44.6260   -29.1150     5.9420 ca         1 WVM       0.180900
      2 N12        -45.5340   -28.3990     2.6400 nh         1 WVM      -0.749300
      3 C13        -44.2660   -28.3840     1.9150 c5         1 WVM       0.250800
      4 C15        -44.4350   -26.1960     0.5960 cy         1 WVM      -0.076900
      5 C17        -43.5600   -27.8350    -0.5180 cy         1 WVM      -0.076900
      6 C20        -46.6810   -28.2960     1.7480 c5         1 WVM       0.216800
      7 C21        -46.0410   -29.6460    -0.3630 c          1 WVM       0.713000
      8 C01        -50.1850   -31.0850     6.6290 c3         1 WVM      -0.123100
      9 C02        -49.9960   -29.9660     5.6190 c3         1 WVM       0.134300
     10 C04        -49.3590   -28.7180     6.2340 c3         1 WVM       0.243800
     11 C06        -46.8920   -28.9200     5.9810 ca         1 WVM       0.394900
     12 C07        -46.8870   -28.6700     4.6080 ca         1 WVM      -0.373000
     13 C08        -45.6420   -28.6480     3.9600 ca         1 WVM       0.422900
     14 C14        -44.6390   -27.7400     0.5830 cy         1 WVM      -0.087000
     15 C16        -43.0880   -26.4100    -0.1370 cy         1 WVM      -0.103400
     16 C18        -46.0650   -28.2640     0.3450 c5         1 WVM       0.058000
     17 F19        -46.8000   -27.3610    -0.4480 f          1 WVM      -0.272000
     18 N05        -48.0200   -28.9340     6.7300 nu         1 WVM      -0.954100
     19 N09        -44.4900   -28.8760     4.6440 nb         1 WVM      -0.293000
     20 N11        -45.7380   -29.1560     6.6610 nb         1 WVM      -0.329000
     21 O03        -51.2500   -29.5210     5.0830 oh         1 WVM      -0.674000
     22 O22        -45.7350   -30.6130     0.3750 o          1 WVM      -0.702500
     23 O23        -46.2840   -29.6690    -1.5880 o          1 WVM      -0.702500
     24 H101       -43.7030   -29.3040     6.4860 h5         1 WVM       0.024100
     25 H131       -43.8890   -29.3990     1.7690 h1         1 WVM       0.063200
     26 H132       -43.5160   -27.8110     2.4570 h1         1 WVM       0.063200
     27 H151       -44.4160   -25.7200     1.5770 hc         1 WVM       0.056950
     28 H152       -45.1620   -25.6890    -0.0360 hc         1 WVM       0.056950
     29 H172       -44.0110   -27.8640    -1.5100 hc         1 WVM       0.056950
     30 H171       -42.8420   -28.6510    -0.4280 hc         1 WVM       0.056950
     31 H202       -47.2370   -27.3700     1.9210 h1         1 WVM       0.049700
     32 H201       -47.3590   -29.1400     1.8770 h1         1 WVM       0.049700
     33 H013       -50.6590   -31.9490     6.1590 hc         1 WVM       0.039700
     34 H021       -49.3570   -30.3200     4.8010 h1         1 WVM       0.059700
     35 H041       -49.3550   -27.9190     5.4900 h1         1 WVM       0.056700
     36 H042       -49.9780   -28.3840     7.0690 h1         1 WVM       0.056700
     37 H071       -47.8010   -28.4940     4.0660 ha         1 WVM       0.130000
     38 H161       -42.2450   -26.4320     0.5540 hc         1 WVM       0.032200
     39 H162       -42.8580   -25.7280    -0.9540 hc         1 WVM       0.032200
     40 H051       -47.8950   -29.1610     7.7030 hn         1 WVM       0.494000
     41 H031       -51.7030   -30.2830     4.7010 ho         1 WVM       0.442000
     42 H011       -49.2210   -31.4050     7.0290 hc         1 WVM       0.039700
     43 H012       -50.8120   -30.7460     7.4570 hc         1 WVM       0.039700
@<TRIPOS>BOND
     1     1    19 ar  
     2     1    20 ar  
     3     1    24 1   
     4     2     3 1   
     5     2     6 1   
     6     2    13 1   
     7     3    14 1   
     8     3    25 1   
     9     3    26 1   
    10     4    14 1   
    11     4    15 1   
    12     4    27 1   
    13     4    28 1   
    14     5    14 1   
    15     5    15 1   
    16     5    29 1   
    17     5    30 1   
    18     6    16 1   
    19     6    31 1   
    20     6    32 1   
    21     7    16 1   
    22     7    22 1   
    23     7    23 1   
    24     8     9 1   
    25     8    33 1   
    26     8    42 1   
    27     8    43 1   
    28     9    10 1   
    29     9    21 1   
    30     9    34 1   
    31    10    18 1   
    32    10    35 1   
    33    10    36 1   
    34    11    12 ar  
    35    11    18 1   
    36    11    20 ar  
    37    12    13 ar  
    38    12    37 1   
    39    13    19 ar  
    40    14    16 1   
    41    15    38 1   
    42    15    39 1   
    43    16    17 1   
    44    18    40 1   
    45    21    41 1   
@<TRIPOS>SUBSTRUCTURE
     1 WVM         1 TEMP              0 ****  ****    0 ROOT
