@<TRIPOS>MOLECULE
WVN
   96    97     1     0     0
SMALL
No Charge or Current Charge


@<TRIPOS>ATOM
      1 C10        174.6410   206.0530   141.4120 c6         1 WVN      -0.068400
      2 C11        159.4140   209.4850   124.1340 c2         1 WVN      -0.186200
      3 C12        176.1790   205.9860   141.4020 c6         1 WVN      -0.071400
      4 C13        174.7750   206.4070   138.8710 ce         1 WVN      -0.082200
      5 C14        176.7400   206.9910   140.3780 c6         1 WVN      -0.041200
      6 C01        158.8420   210.6010   121.8840 c6         1 WVN      -0.035000
      7 C02        158.9690   209.2580   122.6930 c6         1 WVN       0.013700
      8 C03        157.7000   211.4490   122.4810 c6         1 WVN      -0.065400
      9 C04        155.9710   210.1750   122.5480 c6         1 WVN      -0.037200
     10 C05        157.7290   208.3350   122.6880 c2         1 WVN      -0.111400
     11 C06        174.0300   205.6760   140.0290 c6         1 WVN       0.002200
     12 C08        158.5500   210.2930   120.3830 c3         1 WVN      -0.083100
     13 C09        156.4390   208.7370   122.6400 c2         1 WVN      -0.218200
     14 C15        176.0090   206.9680   139.0350 c2         1 WVN      -0.098400
     15 C16        158.0940   206.8660   122.7730 c3         1 WVN      -0.053900
     16 C17        172.5090   206.0350   140.0600 c3         1 WVN      -0.081600
     17 C18        174.1380   204.1390   139.7800 c3         1 WVN      -0.081600
     18 C19        160.6880   209.3030   124.5560 ce         1 WVN      -0.197000
     19 C20        174.1120   206.3260   137.5520 ce         1 WVN      -0.157000
     20 C21        176.7910   207.6860   137.9490 c3         1 WVN      -0.056900
     21 C22        161.1820   209.4940   125.9340 ce         1 WVN      -0.055200
     22 C23        174.6980   205.8420   136.4170 cf         1 WVN      -0.191000
     23 C24        160.2970   210.2910   126.8900 c3         1 WVN      -0.055900
     24 C25        174.1060   205.7210   135.0790 cf         1 WVN      -0.059200
     25 C26        162.4140   209.0190   126.2860 cf         1 WVN      -0.186000
     26 C27        175.0020   205.0790   134.0260 c3         1 WVN      -0.053900
     27 C28        172.8430   206.1450   134.7690 ce         1 WVN      -0.188000
     28 C29        163.0620   209.1170   127.5920 cf         1 WVN      -0.167000
     29 C30        172.1930   206.0520   133.4510 ce         1 WVN      -0.167000
     30 C31        164.3240   208.6680   127.8480 ce         1 WVN      -0.179000
     31 C32        165.0450   208.7130   129.1370 ce         1 WVN      -0.061200
     32 C33        170.9300   206.4980   133.1950 cf         1 WVN      -0.179000
     33 C34        170.2140   206.4520   131.9150 cf         1 WVN      -0.061200
     34 C35        164.4820   209.6300   130.2210 c3         1 WVN      -0.055900
     35 C36        166.2000   208.0000   129.2950 cf         1 WVN      -0.179000
     36 C37        169.0590   207.1650   131.7560 ce         1 WVN      -0.179000
     37 C38        170.7700   205.5370   130.8270 c3         1 WVN      -0.055900
     38 C39        167.0410   207.9260   130.4880 cf         1 WVN      -0.171000
     39 C40        168.2130   207.2400   130.5540 ce         1 WVN      -0.171000
     40 H101       174.3340   207.0710   141.6910 hc         1 WVN       0.041200
     41 H102       174.2460   205.3920   142.1960 hc         1 WVN       0.041200
     42 H111       158.6220   209.7850   124.8200 ha         1 WVN       0.173000
     43 H121       176.5740   206.2150   142.4010 hc         1 WVN       0.041700
     44 H122       176.5210   204.9710   141.1610 hc         1 WVN       0.041700
     45 H142       176.6780   208.0050   140.7960 hc         1 WVN       0.045200
     46 H141       177.8090   206.7860   140.2290 hc         1 WVN       0.045200
     47 H021       160.2380   208.3710   121.8970 hc         1 WVN       0.054700
     48 H031       157.9540   211.7820   123.4970 hc         1 WVN       0.040200
     49 H032       157.4990   212.3500   121.8850 hc         1 WVN       0.040200
     50 H041       155.3300   210.4380   123.4000 hc         1 WVN       0.045200
     51 H042       155.3770   210.3080   121.6340 hc         1 WVN       0.045200
     52 H073       160.1100   212.3170   121.3040 hc         1 WVN       0.034533
     53 H071       160.4300   211.7330   122.9360 hc         1 WVN       0.034533
     54 H072       161.0160   210.8160   121.5420 hc         1 WVN       0.034533
     55 H081       158.4430   211.2170   119.8030 hc         1 WVN       0.034533
     56 H083       159.3600   209.7100   119.9280 hc         1 WVN       0.034533
     57 H082       157.6250   209.7210   120.2490 hc         1 WVN       0.034533
     58 H091       155.6380   207.9960   122.6530 ha         1 WVN       0.169000
     59 H163       157.2070   206.2260   122.8480 hc         1 WVN       0.040367
     60 H161       158.6550   206.5460   121.8870 hc         1 WVN       0.040367
     61 H162       158.7180   206.6690   123.6530 hc         1 WVN       0.040367
     62 H173       171.9690   205.6430   139.1900 hc         1 WVN       0.034367
     63 H172       172.0210   205.6150   140.9470 hc         1 WVN       0.034367
     64 H171       172.3590   207.1210   140.0860 hc         1 WVN       0.034367
     65 H183       173.6270   203.8450   138.8550 hc         1 WVN       0.034367
     66 H181       175.1800   203.8150   139.6840 hc         1 WVN       0.034367
     67 H182       173.6850   203.5660   140.5990 hc         1 WVN       0.034367
     68 H191       161.4350   208.9710   123.8340 ha         1 WVN       0.168000
     69 H201       173.0780   206.6590   137.5140 ha         1 WVN       0.176000
     70 H211       177.3390   208.5390   138.3660 hc         1 WVN       0.041033
     71 H213       177.5240   207.0170   137.4820 hc         1 WVN       0.041033
     72 H212       176.1380   208.0800   137.1620 hc         1 WVN       0.041033
     73 H231       175.7260   205.4910   136.5210 ha         1 WVN       0.175000
     74 H241       160.8820   210.8490   127.6290 hc         1 WVN       0.042033
     75 H243       159.6990   211.0440   126.3640 hc         1 WVN       0.042033
     76 H242       159.6090   209.6330   127.4330 hc         1 WVN       0.042033
     77 H261       162.9830   208.4930   125.5170 ha         1 WVN       0.168000
     78 H273       175.1890   205.7700   133.1950 hc         1 WVN       0.041700
     79 H272       175.9800   204.7820   134.4230 hc         1 WVN       0.041700
     80 H271       174.5380   204.1760   133.6120 hc         1 WVN       0.041700
     81 H281       172.2360   206.6020   135.5480 ha         1 WVN       0.172000
     82 H291       162.4860   209.5530   128.4070 ha         1 WVN       0.173000
     83 H301       172.7740   205.6110   132.6420 ha         1 WVN       0.173000
     84 H311       164.8660   208.2050   127.0220 ha         1 WVN       0.170000
     85 H331       170.3900   206.9600   134.0240 ha         1 WVN       0.170000
     86 H351       165.2640   210.0300   130.8760 hc         1 WVN       0.042367
     87 H353       163.9800   210.5070   129.7970 hc         1 WVN       0.042367
     88 H352       163.7580   209.0980   130.8500 hc         1 WVN       0.042367
     89 H361       166.5370   207.4010   128.4470 ha         1 WVN       0.168000
     90 H371       168.7190   207.7670   132.6010 ha         1 WVN       0.169000
     91 H383       169.9830   205.1280   130.1850 hc         1 WVN       0.042033
     92 H382       171.4810   206.0720   130.1870 hc         1 WVN       0.042033
     93 H381       171.2850   204.6650   131.2470 hc         1 WVN       0.042033
     94 H391       166.7030   208.4420   131.3880 ha         1 WVN       0.172000
     95 H401       168.5540   206.7220   129.6570 ha         1 WVN       0.172000
     96 C07        160.1750   211.4110   121.9190 c3         1 WVN      -0.083100
@<TRIPOS>BOND
     1     1     3 1   
     2     1    11 1   
     3     1    40 1   
     4     1    41 1   
     5     2     7 1   
     6     2    18 2   
     7     2    42 1   
     8     3     5 1   
     9     3    43 1   
    10     3    44 1   
    11     4    11 1   
    12     4    14 2   
    13     4    19 1   
    14     5    14 1   
    15     5    45 1   
    16     5    46 1   
    17     6     7 1   
    18     6     8 1   
    19     6    12 1   
    20     6    96 1   
    21     7    10 1   
    22     7    47 1   
    23     8     9 1   
    24     8    48 1   
    25     8    49 1   
    26     9    13 1   
    27     9    50 1   
    28     9    51 1   
    29    10    13 2   
    30    10    15 1   
    31    11    16 1   
    32    11    17 1   
    33    12    55 1   
    34    12    56 1   
    35    12    57 1   
    36    13    58 1   
    37    14    20 1   
    38    15    59 1   
    39    15    60 1   
    40    15    61 1   
    41    16    62 1   
    42    16    63 1   
    43    16    64 1   
    44    17    65 1   
    45    17    66 1   
    46    17    67 1   
    47    18    21 1   
    48    18    68 1   
    49    19    22 2   
    50    19    69 1   
    51    20    70 1   
    52    20    71 1   
    53    20    72 1   
    54    21    23 1   
    55    21    25 2   
    56    22    24 1   
    57    22    73 1   
    58    23    74 1   
    59    23    75 1   
    60    23    76 1   
    61    24    26 1   
    62    24    27 2   
    63    25    28 1   
    64    25    77 1   
    65    26    78 1   
    66    26    79 1   
    67    26    80 1   
    68    27    29 1   
    69    27    81 1   
    70    28    30 2   
    71    28    82 1   
    72    29    32 2   
    73    29    83 1   
    74    30    31 1   
    75    30    84 1   
    76    31    34 1   
    77    31    35 2   
    78    32    33 1   
    79    32    85 1   
    80    33    36 2   
    81    33    37 1   
    82    34    86 1   
    83    34    87 1   
    84    34    88 1   
    85    35    38 1   
    86    35    89 1   
    87    36    39 1   
    88    36    90 1   
    89    37    91 1   
    90    37    92 1   
    91    37    93 1   
    92    38    39 2   
    93    38    94 1   
    94    39    95 1   
    95    52    96 1   
    96    53    96 1   
    97    54    96 1   
@<TRIPOS>SUBSTRUCTURE
     1 WVN         1 TEMP              0 ****  ****    0 ROOT
