@<TRIPOS>MOLECULE
WVN
   96    97     1     0     0
SMALL
abcg2


@<TRIPOS>ATOM
      1 C10        174.4670   205.9400   141.1970 c6         1 WVN      -0.068400
      2 C11        159.7240   209.7290   124.2070 c2         1 WVN      -0.186200
      3 C12        175.9190   206.3750   141.1940 c6         1 WVN      -0.071400
      4 C13        174.5000   206.3030   138.7000 ce         1 WVN      -0.082200
      5 C14        176.1000   207.5080   140.2010 c6         1 WVN      -0.041200
      6 C01        158.8560   210.4570   121.9270 c6         1 WVN      -0.035000
      7 C02        159.1910   209.2810   122.8770 c6         1 WVN       0.013700
      8 C03        157.5530   211.1190   122.3860 c6         1 WVN      -0.065400
      9 C04        156.3760   210.1510   122.3970 c6         1 WVN      -0.037200
     10 C05        157.9950   208.3840   123.1280 c2         1 WVN      -0.111400
     11 C06        174.0140   205.4010   139.8360 c6         1 WVN       0.002200
     12 C08        158.7110   209.9200   120.5000 c3         1 WVN      -0.083100
     13 C09        156.7450   208.8030   122.9280 c2         1 WVN      -0.218200
     14 C15        175.4170   207.2720   138.8810 c2         1 WVN      -0.098400
     15 C16        158.3070   207.0060   123.6260 c3         1 WVN      -0.053900
     16 C17        172.4810   205.3220   139.8560 c3         1 WVN      -0.081600
     17 C18        174.5640   203.9850   139.6230 c3         1 WVN      -0.081600
     18 C19        160.8700   209.2910   124.7400 ce         1 WVN      -0.197000
     19 C20        173.9100   206.0280   137.3820 ce         1 WVN      -0.157000
     20 C21        175.8470   208.2510   137.8250 c3         1 WVN      -0.056900
     21 C22        161.4070   209.6670   126.0390 ce         1 WVN      -0.055200
     22 C23        174.6130   205.8050   136.2620 cf         1 WVN      -0.191000
     23 C24        160.6510   210.6770   126.8460 c3         1 WVN      -0.055900
     24 C25        174.0520   205.5500   134.9350 cf         1 WVN      -0.059200
     25 C26        162.5580   209.0790   126.4470 cf         1 WVN      -0.186000
     26 C27        174.8760   204.6510   134.0610 c3         1 WVN      -0.053900
     27 C28        172.8820   206.1140   134.5560 ce         1 WVN      -0.188000
     28 C29        163.2550   209.2860   127.6870 cf         1 WVN      -0.167000
     29 C30        172.1890   205.9160   133.3110 ce         1 WVN      -0.167000
     30 C31        164.3890   208.6200   127.9990 ce         1 WVN      -0.179000
     31 C32        165.1440   208.7620   129.2220 ce         1 WVN      -0.061200
     32 C33        171.0420   206.5640   133.0100 cf         1 WVN      -0.179000
     33 C34        170.2840   206.4230   131.7880 cf         1 WVN      -0.061200
     34 C35        164.6510   209.7280   130.2570 c3         1 WVN      -0.055900
     35 C36        166.2650   208.0070   129.3690 cf         1 WVN      -0.179000
     36 C37        169.1550   207.1670   131.6490 ce         1 WVN      -0.179000
     37 C38        170.7860   205.4700   130.7450 c3         1 WVN      -0.055900
     38 C39        167.1590   207.9810   130.4880 cf         1 WVN      -0.171000
     39 C40        168.2600   207.1920   130.5310 ce         1 WVN      -0.171000
     40 H101       173.8430   206.7990   141.4700 hc         1 WVN       0.041200
     41 H102       174.2860   205.1750   141.9580 hc         1 WVN       0.041200
     42 H111       159.0970   210.4220   124.7610 ha         1 WVN       0.173000
     43 H121       176.2270   206.6960   142.1920 hc         1 WVN       0.041700
     44 H122       176.5670   205.5370   140.9250 hc         1 WVN       0.041700
     45 H142       175.7210   208.4460   140.6270 hc         1 WVN       0.045200
     46 H141       177.1640   207.6890   140.0150 hc         1 WVN       0.045200
     47 H021       159.9710   208.6750   122.3960 hc         1 WVN       0.054700
     48 H031       157.6930   211.5300   123.3900 hc         1 WVN       0.040200
     49 H032       157.3280   211.9710   121.7390 hc         1 WVN       0.040200
     50 H041       155.5550   210.5700   122.9860 hc         1 WVN       0.045200
     51 H042       155.9690   210.0330   121.3860 hc         1 WVN       0.045200
     52 H073       159.7860   212.2670   121.1920 hc         1 WVN       0.034533
     53 H071       160.0840   211.9760   122.9050 hc         1 WVN       0.034533
     54 H072       160.9420   211.0300   121.6900 hc         1 WVN       0.034533
     55 H081       158.4030   210.7160   119.8190 hc         1 WVN       0.034533
     56 H083       159.6640   209.5280   120.1400 hc         1 WVN       0.034533
     57 H082       157.9780   209.1150   120.4230 hc         1 WVN       0.034533
     58 H091       155.9260   208.1170   123.1270 ha         1 WVN       0.169000
     59 H163       157.4010   206.4300   123.8160 hc         1 WVN       0.040367
     60 H161       158.9110   206.4580   122.8980 hc         1 WVN       0.040367
     61 H162       158.8870   207.0370   124.5510 hc         1 WVN       0.040367
     62 H173       172.0770   204.7890   138.9950 hc         1 WVN       0.034367
     63 H172       172.1530   204.7840   140.7480 hc         1 WVN       0.034367
     64 H171       172.0300   206.3160   139.8840 hc         1 WVN       0.034367
     65 H183       174.2590   203.5830   138.6550 hc         1 WVN       0.034367
     66 H181       175.6540   203.9610   139.6560 hc         1 WVN       0.034367
     67 H182       174.1910   203.3080   140.3950 hc         1 WVN       0.034367
     68 H191       161.4670   208.5850   124.1660 ha         1 WVN       0.168000
     69 H201       172.8270   205.9510   137.3290 ha         1 WVN       0.176000
     70 H211       175.9140   209.2520   138.2590 hc         1 WVN       0.041033
     71 H213       176.8470   208.0140   137.4510 hc         1 WVN       0.041033
     72 H212       175.1770   208.2930   136.9710 hc         1 WVN       0.041033
     73 H231       175.6980   205.7690   136.3320 ha         1 WVN       0.175000
     74 H241       161.1330   210.9190   127.7900 hc         1 WVN       0.042033
     75 H243       160.5350   211.6090   126.2880 hc         1 WVN       0.042033
     76 H242       159.6440   210.3210   127.0720 hc         1 WVN       0.042033
     77 H261       163.0130   208.3590   125.7710 ha         1 WVN       0.168000
     78 H273       174.5130   204.5830   133.0390 hc         1 WVN       0.041700
     79 H272       175.9080   205.0050   134.0230 hc         1 WVN       0.041700
     80 H271       174.9110   203.6380   134.4700 hc         1 WVN       0.041700
     81 H281       172.4080   206.8040   135.2490 ha         1 WVN       0.172000
     82 H291       162.8470   209.9990   128.3950 ha         1 WVN       0.173000
     83 H301       172.6070   205.2180   132.5950 ha         1 WVN       0.173000
     84 H311       164.7800   207.9080   127.2760 ha         1 WVN       0.170000
     85 H331       170.6390   207.2590   133.7440 ha         1 WVN       0.170000
     86 H351       165.2920   209.7730   131.1330 hc         1 WVN       0.042367
     87 H353       164.5850   210.7380   129.8470 hc         1 WVN       0.042367
     88 H352       163.6480   209.4610   130.5960 hc         1 WVN       0.042367
     89 H361       166.5250   207.3420   128.5490 ha         1 WVN       0.168000
     90 H371       168.8910   207.8250   132.4740 ha         1 WVN       0.169000
     91 H383       170.1430   205.4240   129.8700 hc         1 WVN       0.042033
     92 H382       171.7840   205.7520   130.4050 hc         1 WVN       0.042033
     93 H381       170.8650   204.4580   131.1470 hc         1 WVN       0.042033
     94 H391       166.9510   208.6180   131.3410 ha         1 WVN       0.172000
     95 H401       168.4680   206.5560   129.6770 ha         1 WVN       0.172000
     96 C07        159.9810   211.4890   121.9340 c3         1 WVN      -0.083100
@<TRIPOS>BOND
     1     1     3 1   
     2     1    11 1   
     3     1    40 1   
     4     1    41 1   
     5     2     7 1   
     6     2    18 2   
     7     2    42 1   
     8     3     5 1   
     9     3    43 1   
    10     3    44 1   
    11     4    11 1   
    12     4    14 2   
    13     4    19 1   
    14     5    14 1   
    15     5    45 1   
    16     5    46 1   
    17     6     7 1   
    18     6     8 1   
    19     6    12 1   
    20     6    96 1   
    21     7    10 1   
    22     7    47 1   
    23     8     9 1   
    24     8    48 1   
    25     8    49 1   
    26     9    13 1   
    27     9    50 1   
    28     9    51 1   
    29    10    13 2   
    30    10    15 1   
    31    11    16 1   
    32    11    17 1   
    33    12    55 1   
    34    12    56 1   
    35    12    57 1   
    36    13    58 1   
    37    14    20 1   
    38    15    59 1   
    39    15    60 1   
    40    15    61 1   
    41    16    62 1   
    42    16    63 1   
    43    16    64 1   
    44    17    65 1   
    45    17    66 1   
    46    17    67 1   
    47    18    21 1   
    48    18    68 1   
    49    19    22 2   
    50    19    69 1   
    51    20    70 1   
    52    20    71 1   
    53    20    72 1   
    54    21    23 1   
    55    21    25 2   
    56    22    24 1   
    57    22    73 1   
    58    23    74 1   
    59    23    75 1   
    60    23    76 1   
    61    24    26 1   
    62    24    27 2   
    63    25    28 1   
    64    25    77 1   
    65    26    78 1   
    66    26    79 1   
    67    26    80 1   
    68    27    29 1   
    69    27    81 1   
    70    28    30 2   
    71    28    82 1   
    72    29    32 2   
    73    29    83 1   
    74    30    31 1   
    75    30    84 1   
    76    31    34 1   
    77    31    35 2   
    78    32    33 1   
    79    32    85 1   
    80    33    36 2   
    81    33    37 1   
    82    34    86 1   
    83    34    87 1   
    84    34    88 1   
    85    35    38 1   
    86    35    89 1   
    87    36    39 1   
    88    36    90 1   
    89    37    91 1   
    90    37    92 1   
    91    37    93 1   
    92    38    39 2   
    93    38    94 1   
    94    39    95 1   
    95    52    96 1   
    96    53    96 1   
    97    54    96 1   
@<TRIPOS>SUBSTRUCTURE
     1 WVN         1 TEMP              0 ****  ****    0 ROOT
