@<TRIPOS>MOLECULE
WVR
   44    47     1     0     0
SMALL
No Charge or Current Charge


@<TRIPOS>ATOM
      1 C15         -5.7210     7.9650    22.4310 ca         1 WVR      -0.213000
      2 C14         -1.3170     7.9540    21.0510 c5         1 WVR      -0.068400
      3 C13         -1.9480     7.4320    19.7260 c5         1 WVR      -0.078400
      4 C12         -2.0760     5.9090    19.9750 c5         1 WVR      -0.074400
      5 C11         -1.6380     6.8610    22.1440 c5         1 WVR      -0.067700
      6 C10         -2.6180     5.8680    21.4340 c5         1 WVR      -0.008400
      7 C01         -0.9590     9.7430    26.3020 ca         1 WVR      -0.167500
      8 C02          0.3670    10.0020    25.9260 ca         1 WVR       0.140100
      9 C03          0.8930     9.4080    24.7720 ca         1 WVR      -0.167500
     10 C04          0.0950     8.5620    23.9820 ca         1 WVR      -0.065000
     11 C05         -1.2530     8.3080    24.3330 ca         1 WVR      -0.125300
     12 C06         -1.7600     8.8970    25.5140 ca         1 WVR      -0.065000
     13 C07         -2.1740     7.3720    23.5160 c6         1 WVR       0.283800
     14 N01         -3.4640     8.0110    23.2470 nu         1 WVR      -0.938200
     15 C08         -4.4130     7.4680    22.3890 ca         1 WVR       0.371000
     16 C09         -4.0600     6.4290    21.4960 ca         1 WVR      -0.167300
     17 C16         -6.7130     7.4260    21.6010 ca         1 WVR       0.044000
     18 C17         -6.3890     6.3700    20.7310 ca         1 WVR      -0.349500
     19 C18         -5.0720     5.8730    20.6830 ca         1 WVR       0.031000
     20 S01         -7.6540     5.6580    19.6840 sy         1 WVR       1.159600
     21 O02         -8.9890     5.9580    20.1950 o          1 WVR      -0.560000
     22 O03         -7.2700     4.3240    19.2310 o          1 WVR      -0.560000
     23 N02         -7.5520     6.5620    18.3360 n8         1 WVR      -1.010100
     24 H1          -5.9760     8.7700    23.1140 ha         1 WVR       0.116000
     25 H2          -0.2350     8.0800    20.9340 hc         1 WVR       0.048200
     26 H3          -1.7150     8.9410    21.3120 hc         1 WVR       0.048200
     27 H4          -1.3240     7.6580    18.8540 hc         1 WVR       0.046700
     28 H5          -2.9250     7.8940    19.5430 hc         1 WVR       0.046700
     29 H6          -2.7280     5.4190    19.2440 hc         1 WVR       0.048200
     30 H7          -1.0990     5.4140    19.9040 hc         1 WVR       0.048200
     31 H8          -0.7200     6.3150    22.3900 hc         1 WVR       0.056700
     32 H9          -2.5640     4.8610    21.8660 hc         1 WVR       0.061700
     33 H10         -1.3740    10.1880    27.2030 ha         1 WVR       0.125000
     34 H11          1.9250     9.5990    24.4880 ha         1 WVR       0.125000
     35 H12          0.5460     8.1060    23.1070 ha         1 WVR       0.114500
     36 H13         -2.7810     8.6950    25.8310 ha         1 WVR       0.114500
     37 H14         -2.3510     6.4810    24.1390 h1         1 WVR       0.046700
     38 H15         -3.7670     8.7780    23.8430 hn         1 WVR       0.475000
     39 H16         -7.7260     7.8230    21.6450 ha         1 WVR       0.129000
     40 H17         -4.8330     5.0480    20.0140 ha         1 WVR       0.136000
     41 H18          0.6240    11.1380    27.4460 ho         1 WVR       0.464000
     42 H19         -7.4640     5.8270    17.6380 hn         1 WVR       0.471500
     43 H20         -8.5250     6.8380    18.2350 hn         1 WVR       0.471500
     44 O01          1.1520    10.8190    26.6840 oh         1 WVR      -0.535100
@<TRIPOS>BOND
     1     1    15 ar  
     2     1    17 ar  
     3     1    24 1   
     4     2     3 1   
     5     2     5 1   
     6     2    25 1   
     7     2    26 1   
     8     3     4 1   
     9     3    27 1   
    10     3    28 1   
    11     4     6 1   
    12     4    29 1   
    13     4    30 1   
    14     5     6 1   
    15     5    13 1   
    16     5    31 1   
    17     6    16 1   
    18     6    32 1   
    19     7     8 ar  
    20     7    12 ar  
    21     7    33 1   
    22     8     9 ar  
    23     8    44 1   
    24     9    10 ar  
    25     9    34 1   
    26    10    11 ar  
    27    10    35 1   
    28    11    12 ar  
    29    11    13 1   
    30    12    36 1   
    31    13    14 1   
    32    13    37 1   
    33    14    15 1   
    34    14    38 1   
    35    15    16 ar  
    36    16    19 ar  
    37    17    18 ar  
    38    17    39 1   
    39    18    19 ar  
    40    18    20 1   
    41    19    40 1   
    42    20    21 2   
    43    20    22 2   
    44    20    23 1   
    45    23    42 1   
    46    23    43 1   
    47    41    44 1   
@<TRIPOS>SUBSTRUCTURE
     1 WVR         1 TEMP              0 ****  ****    0 ROOT
