@<TRIPOS>MOLECULE
WVR
   44    47     1     0     0
SMALL
abcg2


@<TRIPOS>ATOM
      1 C15         -5.6960     8.0990    22.2070 ca         1 WVR      -0.213000
      2 C14         -1.1330     7.9020    21.0640 c5         1 WVR      -0.068400
      3 C13         -1.7340     7.4320    19.7240 c5         1 WVR      -0.078400
      4 C12         -2.0780     5.9590    19.9610 c5         1 WVR      -0.074400
      5 C11         -1.6070     6.8800    22.1360 c5         1 WVR      -0.067700
      6 C10         -2.6090     5.9530    21.4060 c5         1 WVR      -0.008400
      7 C01         -1.0720     9.7040    26.2530 ca         1 WVR      -0.167500
      8 C02          0.2800     9.8830    25.9660 ca         1 WVR       0.140100
      9 C03          0.8290     9.2800    24.8390 ca         1 WVR      -0.167500
     10 C04          0.0250     8.5180    23.9990 ca         1 WVR      -0.065000
     11 C05         -1.3320     8.3350    24.2580 ca         1 WVR      -0.125300
     12 C06         -1.8570     8.9320    25.4080 ca         1 WVR      -0.065000
     13 C07         -2.2360     7.4810    23.3900 c6         1 WVR       0.283800
     14 N01         -3.4200     8.2440    22.9830 nu         1 WVR      -0.938200
     15 C08         -4.3760     7.6060    22.2360 ca         1 WVR       0.371000
     16 C09         -4.0370     6.4680    21.4740 ca         1 WVR      -0.167300
     17 C16         -6.6710     7.4720    21.4650 ca         1 WVR       0.044000
     18 C17         -6.3400     6.3280    20.7310 ca         1 WVR      -0.349500
     19 C18         -5.0370     5.8420    20.7420 ca         1 WVR       0.031000
     20 S01         -7.5770     5.4760    19.8270 sy         1 WVR       1.159600
     21 O02         -8.7160     5.1740    20.6710 o          1 WVR      -0.560000
     22 O03         -6.9480     4.3650    19.1400 o          1 WVR      -0.560000
     23 N02         -8.1200     6.6310    18.7770 n8         1 WVR      -1.010100
     24 H1          -5.9380     8.9820    22.7880 ha         1 WVR       0.116000
     25 H2          -0.0440     7.9100    21.0100 hc         1 WVR       0.048200
     26 H3          -1.4500     8.9140    21.3160 hc         1 WVR       0.048200
     27 H4          -1.0530     7.5780    18.8850 hc         1 WVR       0.046700
     28 H5          -2.6480     7.9890    19.5030 hc         1 WVR       0.046700
     29 H6          -2.7900     5.5570    19.2410 hc         1 WVR       0.048200
     30 H7          -1.1730     5.3470    19.9130 hc         1 WVR       0.048200
     31 H8          -0.7620     6.2640    22.4500 hc         1 WVR       0.056700
     32 H9          -2.5790     4.9470    21.8300 hc         1 WVR       0.061700
     33 H10         -1.5010    10.1590    27.1380 ha         1 WVR       0.125000
     34 H11          1.8820     9.4130    24.6240 ha         1 WVR       0.125000
     35 H12          0.4820     8.0610    23.1340 ha         1 WVR       0.114500
     36 H13         -2.9000     8.7880    25.6660 ha         1 WVR       0.114500
     37 H14         -2.5680     6.6350    24.0120 h1         1 WVR       0.046700
     38 H15         -3.7670     8.9160    23.6490 hn         1 WVR       0.475000
     39 H16         -7.6810     7.8590    21.4550 ha         1 WVR       0.129000
     40 H17         -4.7990     4.9640    20.1580 ha         1 WVR       0.136000
     41 H18          0.6070    10.9900    27.5060 ho         1 WVR       0.464000
     42 H19         -7.4650     6.7970    18.0190 hn         1 WVR       0.471500
     43 H20         -9.0410     6.3870    18.4220 hn         1 WVR       0.471500
     44 O01          1.1050    10.6310    26.7580 oh         1 WVR      -0.535100
@<TRIPOS>BOND
     1     1    15 ar  
     2     1    17 ar  
     3     1    24 1   
     4     2     3 1   
     5     2     5 1   
     6     2    25 1   
     7     2    26 1   
     8     3     4 1   
     9     3    27 1   
    10     3    28 1   
    11     4     6 1   
    12     4    29 1   
    13     4    30 1   
    14     5     6 1   
    15     5    13 1   
    16     5    31 1   
    17     6    16 1   
    18     6    32 1   
    19     7     8 ar  
    20     7    12 ar  
    21     7    33 1   
    22     8     9 ar  
    23     8    44 1   
    24     9    10 ar  
    25     9    34 1   
    26    10    11 ar  
    27    10    35 1   
    28    11    12 ar  
    29    11    13 1   
    30    12    36 1   
    31    13    14 1   
    32    13    37 1   
    33    14    15 1   
    34    14    38 1   
    35    15    16 ar  
    36    16    19 ar  
    37    17    18 ar  
    38    17    39 1   
    39    18    19 ar  
    40    18    20 1   
    41    19    40 1   
    42    20    21 2   
    43    20    22 2   
    44    20    23 1   
    45    23    42 1   
    46    23    43 1   
    47    41    44 1   
@<TRIPOS>SUBSTRUCTURE
     1 WVR         1 TEMP              0 ****  ****    0 ROOT
