@<TRIPOS>MOLECULE
WVU
   31    32     1     0     0
SMALL
No Charge or Current Charge


@<TRIPOS>ATOM
      1 C13        -16.7000   -22.3930     0.4410 ca         1 WVU      -0.087500
      2 C15        -18.2170   -20.9800     1.7180 ca         1 WVU      -0.099000
      3 C17        -18.5730   -21.3050    -0.6680 ca         1 WVU      -0.087500
      4 C02        -20.6190   -27.8090    -2.7990 c          1 WVU       0.548000
      5 C03        -19.6630   -26.9370    -1.9510 c6         1 WVU       0.013000
      6 N04        -19.3750   -25.5320    -2.4100 n          1 WVU      -0.397800
      7 C05        -20.1980   -24.9930    -3.5390 c6         1 WVU       0.090000
      8 C06        -21.5580   -25.7000    -3.7380 c6         1 WVU       0.087000
      9 N07        -21.4170   -27.1550    -3.7000 ns         1 WVU      -0.512900
     10 C08        -18.2640   -24.8350    -1.8990 c          1 WVU       0.644100
     11 O09        -17.5380   -25.2850    -1.0250 o          1 WVU      -0.518000
     12 O10        -18.0750   -23.6350    -2.5300 os         1 WVU      -0.457100
     13 C12        -17.4410   -22.1430    -0.7320 ca         1 WVU      -0.122300
     14 C14        -17.0880   -21.8140     1.6620 ca         1 WVU      -0.112000
     15 C16        -18.9600   -20.7260     0.5530 ca         1 WVU      -0.112000
     16 H1         -15.8250   -23.0400     0.4080 ha         1 WVU       0.113500
     17 H2         -18.5170   -20.5320     2.6640 ha         1 WVU       0.114000
     18 H3         -19.1540   -21.1050    -1.5660 ha         1 WVU       0.113500
     19 H4         -18.7210   -27.4980    -1.8800 h1         1 WVU       0.093700
     20 H5         -20.1010   -26.8950    -0.9460 h1         1 WVU       0.093700
     21 H6         -19.6140   -25.0870    -4.4650 h1         1 WVU       0.071200
     22 H7         -20.3880   -23.9210    -3.3840 h1         1 WVU       0.071200
     23 H8         -22.2470   -25.4000    -2.9350 h1         1 WVU       0.049200
     24 H9         -22.0020   -25.4010    -4.6980 h1         1 WVU       0.049200
     25 H10        -22.0240   -27.7290    -4.2740 hn         1 WVU       0.318500
     26 H11        -16.0770   -23.3140    -1.9560 h1         1 WVU       0.068200
     27 H12        -16.8560   -21.9620    -2.7870 h1         1 WVU       0.068200
     28 H13        -16.5120   -22.0120     2.5630 ha         1 WVU       0.113500
     29 H14        -19.8350   -20.0820     0.5950 ha         1 WVU       0.113500
     30 C11        -17.0250   -22.7680    -2.0620 c3         1 WVU       0.229900
     31 O01        -20.6420   -29.0270    -2.7170 o          1 WVU      -0.558000
@<TRIPOS>BOND
     1     1    13 ar  
     2     1    14 ar  
     3     1    16 1   
     4     2    14 ar  
     5     2    15 ar  
     6     2    17 1   
     7     3    13 ar  
     8     3    15 ar  
     9     3    18 1   
    10     4     5 1   
    11     4     9 1   
    12     4    31 2   
    13     5     6 1   
    14     5    19 1   
    15     5    20 1   
    16     6     7 1   
    17     6    10 1   
    18     7     8 1   
    19     7    21 1   
    20     7    22 1   
    21     8     9 1   
    22     8    23 1   
    23     8    24 1   
    24     9    25 1   
    25    10    11 2   
    26    10    12 1   
    27    12    30 1   
    28    13    30 1   
    29    14    28 1   
    30    15    29 1   
    31    26    30 1   
    32    27    30 1   
@<TRIPOS>SUBSTRUCTURE
     1 WVU         1 TEMP              0 ****  ****    0 ROOT
