@<TRIPOS>MOLECULE
WVU
   31    32     1     0     0
SMALL
abcg2


@<TRIPOS>ATOM
      1 C13        -16.9150   -22.2370     0.4220 ca         1 WVU      -0.087500
      2 C15        -18.8430   -21.4300     1.6140 ca         1 WVU      -0.099000
      3 C17        -19.0170   -22.0250    -0.7130 ca         1 WVU      -0.087500
      4 C02        -20.7370   -27.1130    -2.1580 c          1 WVU       0.548000
      5 C03        -19.2430   -27.0290    -2.4270 c6         1 WVU       0.013000
      6 N04        -18.8190   -25.7440    -2.9280 n          1 WVU      -0.397800
      7 C05        -19.6840   -25.2420    -3.9780 c6         1 WVU       0.090000
      8 C06        -21.0540   -24.9680    -3.3940 c6         1 WVU       0.087000
      9 N07        -21.5030   -26.1180    -2.6320 ns         1 WVU      -0.512900
     10 C08        -17.9630   -24.9830    -2.2070 c          1 WVU       0.644100
     11 O09        -17.3620   -25.3600    -1.2230 o          1 WVU      -0.518000
     12 O10        -17.8300   -23.7590    -2.7300 os         1 WVU      -0.457100
     13 C12        -17.6670   -22.3680    -0.7400 ca         1 WVU      -0.122300
     14 C14        -17.4960   -21.7640     1.5920 ca         1 WVU      -0.112000
     15 C16        -19.6020   -21.5650     0.4580 ca         1 WVU      -0.112000
     16 H1         -15.8660   -22.5100     0.4150 ha         1 WVU       0.113500
     17 H2         -19.3000   -21.0690     2.5260 ha         1 WVU       0.114000
     18 H3         -19.6220   -22.1160    -1.6070 ha         1 WVU       0.113500
     19 H4         -18.9960   -27.8150    -3.1480 h1         1 WVU       0.093700
     20 H5         -18.7200   -27.2670    -1.5030 h1         1 WVU       0.093700
     21 H6         -19.7520   -26.0100    -4.7540 h1         1 WVU       0.071200
     22 H7         -19.2810   -24.3490    -4.4430 h1         1 WVU       0.071200
     23 H8         -21.0210   -24.0770    -2.7600 h1         1 WVU       0.049200
     24 H9         -21.7690   -24.7750    -4.1950 h1         1 WVU       0.049200
     25 H10        -22.4890   -26.1780    -2.4220 hn         1 WVU       0.318500
     26 H11        -16.0300   -23.2570    -1.8110 h1         1 WVU       0.068200
     27 H12        -16.8860   -22.0020    -2.7020 h1         1 WVU       0.068200
     28 H13        -16.8970   -21.6680     2.4890 ha         1 WVU       0.113500
     29 H14        -20.6530   -21.3070     0.4670 ha         1 WVU       0.113500
     30 C11        -17.0170   -22.8360    -2.0120 c3         1 WVU       0.229900
     31 O01        -21.1910   -28.0740    -1.5550 o          1 WVU      -0.558000
@<TRIPOS>BOND
     1     1    13 ar  
     2     1    14 ar  
     3     1    16 1   
     4     2    14 ar  
     5     2    15 ar  
     6     2    17 1   
     7     3    13 ar  
     8     3    15 ar  
     9     3    18 1   
    10     4     5 1   
    11     4     9 1   
    12     4    31 2   
    13     5     6 1   
    14     5    19 1   
    15     5    20 1   
    16     6     7 1   
    17     6    10 1   
    18     7     8 1   
    19     7    21 1   
    20     7    22 1   
    21     8     9 1   
    22     8    23 1   
    23     8    24 1   
    24     9    25 1   
    25    10    11 2   
    26    10    12 1   
    27    12    30 1   
    28    13    30 1   
    29    14    28 1   
    30    15    29 1   
    31    26    30 1   
    32    27    30 1   
@<TRIPOS>SUBSTRUCTURE
     1 WVU         1 TEMP              0 ****  ****    0 ROOT
