@<TRIPOS>MOLECULE
WVV
   24    25     1     0     0
SMALL
No Charge or Current Charge


@<TRIPOS>ATOM
      1 C            3.4720    -0.8810     0.2550 c          1 WVV       0.713600
      2 O            3.2370    -2.0370     0.5780 o          1 WVV      -0.720000
      3 C1           2.3050     0.0380    -0.0670 ca         1 WVV      -0.140600
      4 C10          0.1290     1.7440    -0.6650 ca         1 WVV      -0.109000
      5 C11          1.4440     2.2240    -0.7510 ca         1 WVV      -0.151000
      6 C12          2.5260     1.3800    -0.4530 ca         1 WVV      -0.074000
      7 C2           0.9710    -0.4300     0.0140 ca         1 WVV      -0.065000
      8 C3          -0.1340     0.4090    -0.2760 cp         1 WVV      -0.094000
      9 C4          -1.5340    -0.1170    -0.1910 cp         1 WVV      -0.029000
     10 C5          -2.5870     0.6150     0.4260 ca         1 WVV       0.167000
     11 C6          -3.8910     0.0950     0.4890 ca         1 WVV      -0.165000
     12 C7          -4.1770    -1.1650    -0.0610 ca         1 WVV      -0.107000
     13 C8          -3.1530    -1.9060    -0.6710 ca         1 WVV      -0.134000
     14 C9          -1.8470    -1.3890    -0.7340 ca         1 WVV      -0.080000
     15 F           -2.3510     1.8190     0.9970 f          1 WVV      -0.181000
     16 O1           4.6080    -0.4330     0.1810 o          1 WVV      -0.720000
     17 H5          -0.6940     2.4100    -0.9140 ha         1 WVV       0.090000
     18 H6           1.6270     3.2520    -1.0530 ha         1 WVV       0.087000
     19 H7           3.5380     1.7720    -0.5270 ha         1 WVV       0.127000
     20 H            0.7820    -1.4570     0.3180 ha         1 WVV       0.130000
     21 H1          -4.6780     0.6700     0.9700 ha         1 WVV       0.116000
     22 H2          -5.1870    -1.5660    -0.0120 ha         1 WVV       0.101000
     23 H3          -3.3710    -2.8830    -1.0980 ha         1 WVV       0.107000
     24 H4          -1.0700    -1.9750    -1.2190 ha         1 WVV       0.129000
@<TRIPOS>BOND
     1     1     2 1   
     2     1     3 1   
     3     1    16 1   
     4     3     6 ar  
     5     3     7 ar  
     6     4     5 ar  
     7     4     8 ar  
     8     4    17 1   
     9     5     6 ar  
    10     5    18 1   
    11     6    19 1   
    12     7     8 ar  
    13     7    20 1   
    14     8     9 1   
    15     9    10 ar  
    16     9    14 ar  
    17    10    11 ar  
    18    10    15 1   
    19    11    12 ar  
    20    11    21 1   
    21    12    13 ar  
    22    12    22 1   
    23    13    14 ar  
    24    13    23 1   
    25    14    24 1   
@<TRIPOS>SUBSTRUCTURE
     1 WVV         1 TEMP              0 ****  ****    0 ROOT
