@<TRIPOS>MOLECULE
WVV
   24    25     1     0     0
SMALL
abcg2


@<TRIPOS>ATOM
      1 C            3.4130    -0.8590     0.3460 c          1 WVV       0.713600
      2 O            3.1180    -2.0100     0.7200 o          1 WVV      -0.720000
      3 C1           2.2530     0.0520    -0.0420 ca         1 WVV      -0.140600
      4 C10          0.1140     1.7190    -0.7250 ca         1 WVV      -0.109000
      5 C11          1.4190     2.1780    -0.8210 ca         1 WVV      -0.151000
      6 C12          2.4810     1.3530    -0.4790 ca         1 WVV      -0.074000
      7 C2           0.9400    -0.4020     0.0420 ca         1 WVV      -0.065000
      8 C3          -0.1380     0.4170    -0.2920 cp         1 WVV      -0.094000
      9 C4          -1.5140    -0.1170    -0.2130 cp         1 WVV      -0.029000
     10 C5          -2.5270     0.5420     0.4730 ca         1 WVV       0.167000
     11 C6          -3.8160     0.0530     0.5660 ca         1 WVV      -0.165000
     12 C7          -4.1200    -1.1520    -0.0500 ca         1 WVV      -0.107000
     13 C8          -3.1350    -1.8470    -0.7380 ca         1 WVV      -0.134000
     14 C9          -1.8500    -1.3310    -0.8130 ca         1 WVV      -0.080000
     15 F           -2.2420     1.6980     1.0970 f          1 WVV      -0.181000
     16 O1           4.5560    -0.3700     0.2580 o          1 WVV      -0.720000
     17 H5          -0.7030     2.3680    -1.0130 ha         1 WVV       0.090000
     18 H6           1.6080     3.1870    -1.1670 ha         1 WVV       0.087000
     19 H7           3.4960     1.7190    -0.5530 ha         1 WVV       0.127000
     20 H            0.7550    -1.4110     0.3870 ha         1 WVV       0.130000
     21 H1          -4.5640     0.6050     1.1200 ha         1 WVV       0.116000
     22 H2          -5.1270    -1.5440     0.0120 ha         1 WVV       0.101000
     23 H3          -3.3670    -2.7880    -1.2190 ha         1 WVV       0.107000
     24 H4          -1.0870    -1.8700    -1.3620 ha         1 WVV       0.129000
@<TRIPOS>BOND
     1     1     2 1   
     2     1     3 1   
     3     1    16 1   
     4     3     6 ar  
     5     3     7 ar  
     6     4     5 ar  
     7     4     8 ar  
     8     4    17 1   
     9     5     6 ar  
    10     5    18 1   
    11     6    19 1   
    12     7     8 ar  
    13     7    20 1   
    14     8     9 1   
    15     9    10 ar  
    16     9    14 ar  
    17    10    11 ar  
    18    10    15 1   
    19    11    12 ar  
    20    11    21 1   
    21    12    13 ar  
    22    12    22 1   
    23    13    14 ar  
    24    13    23 1   
    25    14    24 1   
@<TRIPOS>SUBSTRUCTURE
     1 WVV         1 TEMP              0 ****  ****    0 ROOT
