@<TRIPOS>MOLECULE
WVW
   44    47     1     0     0
SMALL
abcg2


@<TRIPOS>ATOM
      1 C01          0.7200    10.1050    24.4380 ca         1 WVW      -0.170000
      2 C02          0.6310     9.5600    25.7170 ca         1 WVW       0.139100
      3 C03         -0.3960     8.6680    26.0190 ca         1 WVW      -0.170000
      4 C04         -1.3230     8.3220    25.0420 ca         1 WVW      -0.060500
      5 C05         -1.2490     8.8580    23.7570 ca         1 WVW      -0.138300
      6 C06         -0.2180     9.7550    23.4770 ca         1 WVW      -0.060500
      7 C07         -2.2040     8.4570    22.6570 c6         1 WVW       0.284800
      8 N01         -3.5230     8.1450    23.1910 nu         1 WVW      -0.939200
      9 C08         -4.4890     7.6380    22.3630 ca         1 WVW       0.374000
     10 C09         -4.1350     6.9870    21.1590 ca         1 WVW      -0.165300
     11 C10         -2.6860     6.8090    20.7500 c5         1 WVW      -0.009400
     12 C11         -1.6920     7.2630    21.8440 c5         1 WVW      -0.065700
     13 C12         -2.3200     5.3120    20.4860 c5         1 WVW      -0.075400
     14 C13         -1.2270     4.9470    21.5120 c5         1 WVW      -0.079400
     15 C14         -1.3820     5.9840    22.6250 c5         1 WVW      -0.071400
     16 C15         -5.8460     7.7400    22.7260 ca         1 WVW      -0.214000
     17 C16         -6.8400     7.2320    21.9160 ca         1 WVW       0.032000
     18 C17         -6.4900     6.6130    20.7170 ca         1 WVW      -0.349500
     19 C18         -5.1480     6.4940    20.3540 ca         1 WVW       0.044000
     20 O01          1.5690     9.9390    26.6370 oh         1 WVW      -0.536100
     21 S01         -7.7290     5.9840    19.6510 sy         1 WVW       1.156600
     22 O02         -7.4660     6.3650    18.2770 o          1 WVW      -0.559000
     23 O03         -9.0250     6.3330    20.2010 o          1 WVW      -0.559000
     24 N02         -7.4540     4.3530    19.6990 n8         1 WVW      -1.005100
     25 H1           1.5150    10.8030    24.2110 ha         1 WVW       0.124500
     26 H2          -0.4670     8.2470    27.0150 ha         1 WVW       0.124500
     27 H3          -2.1100     7.6220    25.2880 ha         1 WVW       0.120000
     28 H4          -0.1460    10.1880    22.4860 ha         1 WVW       0.120000
     29 H5          -2.2810     9.3060    21.9630 h1         1 WVW       0.043700
     30 H6          -3.8540     8.7720    23.9090 hn         1 WVW       0.476000
     31 H7          -2.5230     7.3930    19.8420 hc         1 WVW       0.058700
     32 H8          -0.7720     7.5880    21.3520 hc         1 WVW       0.057700
     33 H9          -3.2010     4.6850    20.6280 hc         1 WVW       0.048200
     34 H10         -1.9820     5.1610    19.4610 hc         1 WVW       0.048200
     35 H11         -1.3200     3.9200    21.8670 hc         1 WVW       0.043700
     36 H12         -0.2370     5.0480    21.0590 hc         1 WVW       0.043700
     37 H13         -2.2240     5.7270    23.2750 hc         1 WVW       0.052200
     38 H14         -0.4950     6.0780    23.2520 hc         1 WVW       0.052200
     39 H15         -6.1030     8.2340    23.6560 ha         1 WVW       0.116000
     40 H16         -7.8790     7.3200    22.2010 ha         1 WVW       0.137000
     41 H17         -4.8910     6.0000    19.4260 ha         1 WVW       0.128000
     42 H18          1.4010     9.4950    27.4790 ho         1 WVW       0.464000
     43 H19         -7.7550     3.9440    20.5800 hn         1 WVW       0.469500
     44 H20         -7.9080     3.8950    18.9120 hn         1 WVW       0.469500
@<TRIPOS>BOND
     1     1     2 ar  
     2     1     6 ar  
     3     1    25 1   
     4     2     3 ar  
     5     2    20 1   
     6     3     4 ar  
     7     3    26 1   
     8     4     5 ar  
     9     4    27 1   
    10     5     6 ar  
    11     5     7 1   
    12     6    28 1   
    13     7     8 1   
    14     7    12 1   
    15     7    29 1   
    16     8     9 1   
    17     8    30 1   
    18     9    10 ar  
    19     9    16 ar  
    20    10    11 1   
    21    10    19 ar  
    22    11    12 1   
    23    11    13 1   
    24    11    31 1   
    25    12    15 1   
    26    12    32 1   
    27    13    14 1   
    28    13    33 1   
    29    13    34 1   
    30    14    15 1   
    31    14    35 1   
    32    14    36 1   
    33    15    37 1   
    34    15    38 1   
    35    16    17 ar  
    36    16    39 1   
    37    17    18 ar  
    38    17    40 1   
    39    18    19 ar  
    40    18    21 1   
    41    19    41 1   
    42    20    42 1   
    43    21    22 2   
    44    21    23 2   
    45    21    24 1   
    46    24    43 1   
    47    24    44 1   
@<TRIPOS>SUBSTRUCTURE
     1 WVW         1 TEMP              0 ****  ****    0 ROOT
