@<TRIPOS>MOLECULE
WVW
   44    47     1     0     0
SMALL
No Charge or Current Charge


@<TRIPOS>ATOM
      1 C01          0.6350    10.2860    24.5940 ca         1 WVW      -0.170000
      2 C02          0.6080     9.6110    25.8220 ca         1 WVW       0.139100
      3 C03         -0.3090     8.5680    26.0290 ca         1 WVW      -0.170000
      4 C04         -1.1990     8.2010    25.0050 ca         1 WVW      -0.060500
      5 C05         -1.1790     8.8760    23.7640 ca         1 WVW      -0.138300
      6 C06         -0.2540     9.9210    23.5670 ca         1 WVW      -0.060500
      7 C07         -2.1350     8.4920    22.6250 c6         1 WVW       0.284800
      8 N01         -3.4770     8.1980    23.1170 nu         1 WVW      -0.939200
      9 C08         -4.4500     7.6330    22.3040 ca         1 WVW       0.374000
     10 C09         -4.0890     6.9530    21.1180 ca         1 WVW      -0.165300
     11 C10         -2.6200     6.7900    20.6670 c5         1 WVW      -0.009400
     12 C11         -1.6400     7.2760    21.7970 c5         1 WVW      -0.065700
     13 C12         -2.3350     5.2480    20.5270 c5         1 WVW      -0.075400
     14 C13         -1.0630     5.0120    21.3830 c5         1 WVW      -0.079400
     15 C14         -1.3300     5.9630    22.5720 c5         1 WVW      -0.071400
     16 C15         -5.7940     7.7650    22.6760 ca         1 WVW      -0.214000
     17 C16         -6.8090     7.2340    21.8680 ca         1 WVW       0.032000
     18 C17         -6.4710     6.5760    20.6730 ca         1 WVW      -0.349500
     19 C18         -5.1190     6.4400    20.3010 ca         1 WVW       0.044000
     20 O01          1.4740     9.9730    26.8100 oh         1 WVW      -0.536100
     21 S01         -7.7570     5.9080    19.6240 sy         1 WVW       1.156600
     22 O02         -7.2720     5.7100    18.2610 o          1 WVW      -0.559000
     23 O03         -9.0460     6.5290    19.9140 o          1 WVW      -0.559000
     24 N02         -7.9280     4.3920    20.1910 n8         1 WVW      -1.005100
     25 H1           1.3460    11.0930    24.4340 ha         1 WVW       0.124500
     26 H2          -0.3370     8.0380    26.9780 ha         1 WVW       0.124500
     27 H3          -1.9020     7.3880    25.1750 ha         1 WVW       0.120000
     28 H4          -0.2210    10.4510    22.6170 ha         1 WVW       0.120000
     29 H5          -2.2040     9.3470    21.9350 h1         1 WVW       0.043700
     30 H6          -3.8170     8.7300    23.9150 hn         1 WVW       0.476000
     31 H7          -2.4290     7.3260    19.7300 hc         1 WVW       0.058700
     32 H8          -0.7130     7.6380    21.3360 hc         1 WVW       0.057700
     33 H9          -3.1600     4.6360    20.9130 hc         1 WVW       0.048200
     34 H10         -2.1860     4.9500    19.4830 hc         1 WVW       0.048200
     35 H11         -0.9610     3.9670    21.6970 hc         1 WVW       0.043700
     36 H12         -0.1500     5.2830    20.8390 hc         1 WVW       0.043700
     37 H13         -2.1750     5.6280    23.1850 hc         1 WVW       0.052200
     38 H14         -0.4570     6.0560    23.2270 hc         1 WVW       0.052200
     39 H15         -6.0560     8.2840    23.5920 ha         1 WVW       0.116000
     40 H16         -7.8500     7.3430    22.1710 ha         1 WVW       0.137000
     41 H17         -4.8610     5.9320    19.3730 ha         1 WVW       0.128000
     42 H18          1.3140     9.3990    27.5890 ho         1 WVW       0.464000
     43 H19         -8.9320     4.3760    20.3540 hn         1 WVW       0.469500
     44 H20         -7.8440     3.8680    19.3230 hn         1 WVW       0.469500
@<TRIPOS>BOND
     1     1     2 ar  
     2     1     6 ar  
     3     1    25 1   
     4     2     3 ar  
     5     2    20 1   
     6     3     4 ar  
     7     3    26 1   
     8     4     5 ar  
     9     4    27 1   
    10     5     6 ar  
    11     5     7 1   
    12     6    28 1   
    13     7     8 1   
    14     7    12 1   
    15     7    29 1   
    16     8     9 1   
    17     8    30 1   
    18     9    10 ar  
    19     9    16 ar  
    20    10    11 1   
    21    10    19 ar  
    22    11    12 1   
    23    11    13 1   
    24    11    31 1   
    25    12    15 1   
    26    12    32 1   
    27    13    14 1   
    28    13    33 1   
    29    13    34 1   
    30    14    15 1   
    31    14    35 1   
    32    14    36 1   
    33    15    37 1   
    34    15    38 1   
    35    16    17 ar  
    36    16    39 1   
    37    17    18 ar  
    38    17    40 1   
    39    18    19 ar  
    40    18    21 1   
    41    19    41 1   
    42    20    42 1   
    43    21    22 2   
    44    21    23 2   
    45    21    24 1   
    46    24    43 1   
    47    24    44 1   
@<TRIPOS>SUBSTRUCTURE
     1 WVW         1 TEMP              0 ****  ****    0 ROOT
