@<TRIPOS>MOLECULE
WVY
   42    44     1     0     0
SMALL
No Charge or Current Charge


@<TRIPOS>ATOM
      1 C13        -46.2990   -35.9830    -1.2850 cc         1 WVY       0.249900
      2 C17        -48.4680   -28.6720     5.7180 c6         1 WVY      -0.148700
      3 C20        -50.3970   -30.7630     6.6920 c6         1 WVY       0.112000
      4 C22        -49.8230   -28.3010     6.3550 c          1 WVY       0.565000
      5 C02        -47.2500   -28.4240     2.2070 c          1 WVY       0.593100
      6 C04        -45.8600   -30.2300     1.1460 ca         1 WVY      -0.095300
      7 C05        -45.9480   -30.4840    -0.2360 ca         1 WVY      -0.081000
      8 C06        -45.9520   -31.8060    -0.7150 ca         1 WVY      -0.118000
      9 C07        -45.8680   -32.8890     0.1820 ca         1 WVY       0.028800
     10 C08        -45.7870   -32.6330     1.5660 ca         1 WVY      -0.118000
     11 C09        -45.7820   -31.3110     2.0440 ca         1 WVY      -0.081000
     12 C11        -44.7770   -34.9990     0.0190 cd         1 WVY      -0.153000
     13 C12        -45.0680   -36.1660    -0.6230 cc         1 WVY      -0.227000
     14 C16        -48.5990   -28.3560     4.2010 c3         1 WVY       0.177600
     15 C18        -48.0360   -30.1420     5.9940 c6         1 WVY      -0.063400
     16 C19        -49.2110   -31.1140     5.7690 c6         1 WVY      -0.099400
     17 N10        -45.8750   -34.2000    -0.3000 na         1 WVY       0.207000
     18 N14        -46.8240   -34.7840    -1.1200 nd         1 WVY      -0.515800
     19 N21        -50.6340   -29.3150     6.8140 ns         1 WVY      -0.507900
     20 O01        -48.1930   -28.1110     1.4930 o          1 WVY      -0.476000
     21 O15        -47.3310   -28.5940     3.5650 os         1 WVY      -0.464100
     22 H131       -46.8270   -36.7050    -1.8950 h4         1 WVY       0.040100
     23 H171       -47.7200   -27.9630     6.0950 hc         1 WVY       0.078700
     24 H202       -50.1920   -31.1500     7.7010 h1         1 WVY       0.046200
     25 H201       -51.3130   -31.2510     6.3290 h1         1 WVY       0.046200
     26 H051       -46.0150   -29.6590    -0.9420 ha         1 WVY       0.125000
     27 H061       -46.0200   -31.9910    -1.7840 ha         1 WVY       0.133000
     28 H081       -45.7320   -33.4590     2.2710 ha         1 WVY       0.133000
     29 H091       -45.7220   -31.1290     3.1160 ha         1 WVY       0.125000
     30 H111       -43.9400   -34.6850     0.6330 h4         1 WVY       0.155000
     31 H121       -44.4770   -37.0760    -0.6420 ha         1 WVY       0.148000
     32 H161       -48.9010   -27.3060     4.0740 h1         1 WVY       0.071200
     33 H162       -49.3840   -28.9870     3.7610 h1         1 WVY       0.071200
     34 H182       -47.1780   -30.4280     5.3710 hc         1 WVY       0.052700
     35 H181       -47.6940   -30.2280     7.0350 hc         1 WVY       0.052700
     36 H192       -49.5340   -31.0770     4.7200 hc         1 WVY       0.056200
     37 H191       -48.8910   -32.1490     5.9550 hc         1 WVY       0.056200
     38 H211       -51.4950   -29.0120     7.2550 hn         1 WVY       0.322500
     39 C03        -45.8650   -28.7980     1.6740 c3         1 WVY      -0.084100
     40 O23        -50.1540   -27.1380     6.5200 o          1 WVY      -0.577000
     41 H032       -45.1340   -28.7160     2.4870 hc         1 WVY       0.081200
     42 H031       -45.6000   -28.0990     0.8730 hc         1 WVY       0.081200
@<TRIPOS>BOND
     1     1    13 1   
     2     1    18 2   
     3     1    22 1   
     4     2     4 1   
     5     2    14 1   
     6     2    15 1   
     7     2    23 1   
     8     3    16 1   
     9     3    19 1   
    10     3    24 1   
    11     3    25 1   
    12     4    19 1   
    13     4    40 2   
    14     5    20 2   
    15     5    21 1   
    16     5    39 1   
    17     6     7 ar  
    18     6    11 ar  
    19     6    39 1   
    20     7     8 ar  
    21     7    26 1   
    22     8     9 ar  
    23     8    27 1   
    24     9    10 ar  
    25     9    17 1   
    26    10    11 ar  
    27    10    28 1   
    28    11    29 1   
    29    12    13 2   
    30    12    17 1   
    31    12    30 1   
    32    13    31 1   
    33    14    21 1   
    34    14    32 1   
    35    14    33 1   
    36    15    16 1   
    37    15    34 1   
    38    15    35 1   
    39    16    36 1   
    40    16    37 1   
    41    17    18 1   
    42    19    38 1   
    43    39    41 1   
    44    39    42 1   
@<TRIPOS>SUBSTRUCTURE
     1 WVY         1 TEMP              0 ****  ****    0 ROOT
