@<TRIPOS>MOLECULE
WVY
   42    44     1     0     0
SMALL
abcg2


@<TRIPOS>ATOM
      1 C13        -46.7620   -35.6880    -0.5050 cc         1 WVY       0.249900
      2 C17        -48.5410   -29.2040     5.1000 c6         1 WVY      -0.148700
      3 C20        -49.8960   -31.3510     6.4150 c6         1 WVY       0.112000
      4 C22        -49.7980   -28.9220     5.9170 c          1 WVY       0.565000
      5 C02        -46.8620   -27.8850     2.1980 c          1 WVY       0.593100
      6 C04        -45.6120   -29.8400     1.3340 ca         1 WVY      -0.095300
      7 C05        -46.0780   -30.2640     0.0900 ca         1 WVY      -0.081000
      8 C06        -46.2080   -31.6130    -0.2060 ca         1 WVY      -0.118000
      9 C07        -45.8820   -32.5640     0.7580 ca         1 WVY       0.028800
     10 C08        -45.4200   -32.1580     2.0080 ca         1 WVY      -0.118000
     11 C09        -45.2830   -30.8050     2.2840 ca         1 WVY      -0.081000
     12 C11        -45.3420   -34.9830     1.0260 cd         1 WVY      -0.153000
     13 C12        -45.8000   -36.1320     0.4250 cc         1 WVY      -0.227000
     14 C16        -48.3880   -28.1500     4.0160 c3         1 WVY       0.177600
     15 C18        -48.4100   -30.6470     4.5330 c6         1 WVY      -0.063400
     16 C19        -49.5400   -31.5820     4.9560 c6         1 WVY      -0.099400
     17 N10        -46.0150   -33.9430     0.4630 na         1 WVY       0.207000
     18 N14        -46.8910   -34.3670    -0.4820 nd         1 WVY      -0.515800
     19 N21        -50.3230   -29.9640     6.5810 ns         1 WVY      -0.507900
     20 O01        -47.6510   -27.2020     1.5830 o          1 WVY      -0.476000
     21 O15        -47.0810   -28.3540     3.4300 os         1 WVY      -0.464100
     22 H131       -47.3650   -36.2740    -1.1810 h4         1 WVY       0.040100
     23 H171       -47.7280   -29.0500     5.8180 hc         1 WVY       0.078700
     24 H202       -49.0370   -31.5670     7.0590 h1         1 WVY       0.046200
     25 H201       -50.7180   -31.9890     6.7330 h1         1 WVY       0.046200
     26 H051       -46.3360   -29.5290    -0.6640 ha         1 WVY       0.125000
     27 H061       -46.5560   -31.9330    -1.1770 ha         1 WVY       0.133000
     28 H081       -45.1850   -32.8870     2.7700 ha         1 WVY       0.133000
     29 H091       -44.9330   -30.4980     3.2610 ha         1 WVY       0.125000
     30 H111       -44.5890   -34.8290     1.7790 h4         1 WVY       0.155000
     31 H121       -45.4790   -37.1410     0.6210 ha         1 WVY       0.148000
     32 H161       -48.4370   -27.1410     4.4200 h1         1 WVY       0.071200
     33 H162       -49.1460   -28.2620     3.2420 h1         1 WVY       0.071200
     34 H182       -48.3590   -30.6000     3.4450 hc         1 WVY       0.052700
     35 H181       -47.4570   -31.0620     4.8640 hc         1 WVY       0.052700
     36 H192       -50.4330   -31.3980     4.3520 hc         1 WVY       0.056200
     37 H191       -49.2450   -32.6210     4.8020 hc         1 WVY       0.056200
     38 H211       -51.1260   -29.7670     7.1610 hn         1 WVY       0.322500
     39 C03        -45.5300   -28.3660     1.6620 c3         1 WVY      -0.084100
     40 O23        -50.2680   -27.7830     6.0110 o          1 WVY      -0.577000
     41 H032       -44.7630   -28.1890     2.4170 hc         1 WVY       0.081200
     42 H031       -45.2970   -27.7820     0.7740 hc         1 WVY       0.081200
@<TRIPOS>BOND
     1     1    13 1   
     2     1    18 2   
     3     1    22 1   
     4     2     4 1   
     5     2    14 1   
     6     2    15 1   
     7     2    23 1   
     8     3    16 1   
     9     3    19 1   
    10     3    24 1   
    11     3    25 1   
    12     4    19 1   
    13     4    40 2   
    14     5    20 2   
    15     5    21 1   
    16     5    39 1   
    17     6     7 ar  
    18     6    11 ar  
    19     6    39 1   
    20     7     8 ar  
    21     7    26 1   
    22     8     9 ar  
    23     8    27 1   
    24     9    10 ar  
    25     9    17 1   
    26    10    11 ar  
    27    10    28 1   
    28    11    29 1   
    29    12    13 2   
    30    12    17 1   
    31    12    30 1   
    32    13    31 1   
    33    14    21 1   
    34    14    32 1   
    35    14    33 1   
    36    15    16 1   
    37    15    34 1   
    38    15    35 1   
    39    16    36 1   
    40    16    37 1   
    41    17    18 1   
    42    19    38 1   
    43    39    41 1   
    44    39    42 1   
@<TRIPOS>SUBSTRUCTURE
     1 WVY         1 TEMP              0 ****  ****    0 ROOT
