@<TRIPOS>MOLECULE
WVZ
   30    32     1     0     0
SMALL
No Charge or Current Charge


@<TRIPOS>ATOM
      1 C10         29.7550     4.3890     2.8760 c6         1 WVZ       0.221300
      2 C13         31.9470     5.6460     2.5960 ca         1 WVZ      -0.093000
      3 C15         34.0890     4.5120     2.3700 ca         1 WVZ      -0.102000
      4 C17         32.0440     3.2170     2.6430 ca         1 WVZ      -0.093000
      5 O01         27.7190     1.6670     3.9400 o          1 WVZ      -0.566000
      6 C02         28.5300     2.2300     3.2230 c          1 WVZ       0.573000
      7 C03         28.6590     1.9450     1.7240 c6         1 WVZ      -0.122100
      8 C04         28.4530     3.2570     0.9780 ca         1 WVZ      -0.063300
      9 C05         27.7560     3.3010    -0.2430 ca         1 WVZ      -0.104000
     10 C06         27.5970     4.5240    -0.9160 ca         1 WVZ      -0.101000
     11 C07         28.1360     5.7010    -0.3690 ca         1 WVZ      -0.108000
     12 C08         28.8350     5.6570     0.8500 ca         1 WVZ      -0.093000
     13 C09         29.0020     4.4340     1.5300 ca         1 WVZ      -0.089300
     14 N11         29.3080     3.2540     3.7020 ns         1 WVZ      -0.501900
     15 C12         31.2830     4.4060     2.7030 ca         1 WVZ      -0.112300
     16 C14         33.3420     5.6990     2.4300 ca         1 WVZ      -0.110000
     17 C16         33.4390     3.2710     2.4770 ca         1 WVZ      -0.110000
     18 H1          29.4770     5.2960     3.4320 h1         1 WVZ       0.062700
     19 H3          35.1690     4.5520     2.2410 ha         1 WVZ       0.114000
     20 H4          31.5660     2.2460     2.7290 ha         1 WVZ       0.112000
     21 H5          27.9590     1.1570     1.4180 hc         1 WVZ       0.080700
     22 H6          29.6920     1.6420     1.5190 hc         1 WVZ       0.080700
     23 H7          27.3400     2.3910    -0.6710 ha         1 WVZ       0.115000
     24 H8          27.0570     4.5600    -1.8600 ha         1 WVZ       0.116000
     25 H9          28.0120     6.6480    -0.8890 ha         1 WVZ       0.116000
     26 H10         29.2450     6.5750     1.2660 ha         1 WVZ       0.115000
     27 H11         29.2490     3.4080     4.7010 hn         1 WVZ       0.319500
     28 H12         33.8430     6.6610     2.3480 ha         1 WVZ       0.114500
     29 H13         34.0170     2.3510     2.4330 ha         1 WVZ       0.114500
     30 H2          31.3820     6.5740     2.6410 ha         1 WVZ       0.112000
@<TRIPOS>BOND
     1     1    13 1   
     2     1    14 1   
     3     1    15 1   
     4     1    18 1   
     5     2    15 ar  
     6     2    16 ar  
     7     2    30 1   
     8     3    16 ar  
     9     3    17 ar  
    10     3    19 1   
    11     4    15 ar  
    12     4    17 ar  
    13     4    20 1   
    14     5     6 2   
    15     6     7 1   
    16     6    14 1   
    17     7     8 1   
    18     7    21 1   
    19     7    22 1   
    20     8     9 ar  
    21     8    13 ar  
    22     9    10 ar  
    23     9    23 1   
    24    10    11 ar  
    25    10    24 1   
    26    11    12 ar  
    27    11    25 1   
    28    12    13 ar  
    29    12    26 1   
    30    14    27 1   
    31    16    28 1   
    32    17    29 1   
@<TRIPOS>SUBSTRUCTURE
     1 WVZ         1 TEMP              0 ****  ****    0 ROOT
