@<TRIPOS>MOLECULE
WVZ
   30    32     1     0     0
SMALL
abcg2


@<TRIPOS>ATOM
      1 C10         29.6900     4.4930     2.8430 c6         1 WVZ       0.221300
      2 C13         31.9220     5.6550     2.9480 ca         1 WVZ      -0.093000
      3 C15         33.9760     4.5420     2.3740 ca         1 WVZ      -0.102000
      4 C17         31.8830     3.3570     2.2690 ca         1 WVZ      -0.093000
      5 O01         28.4000     1.4010     4.1910 o          1 WVZ      -0.566000
      6 C02         28.6920     2.2530     3.3660 c          1 WVZ       0.573000
      7 C03         28.4730     2.0200     1.8910 c6         1 WVZ      -0.122100
      8 C04         28.4250     3.2600     1.0490 ca         1 WVZ      -0.063300
      9 C05         27.8090     3.2400    -0.2010 ca         1 WVZ      -0.104000
     10 C06         27.7810     4.3730    -0.9960 ca         1 WVZ      -0.101000
     11 C07         28.3670     5.5500    -0.5420 ca         1 WVZ      -0.108000
     12 C08         28.9740     5.5780     0.7020 ca         1 WVZ      -0.093000
     13 C09         29.0080     4.4370     1.4990 ca         1 WVZ      -0.089300
     14 N11         29.2310     3.4340     3.7150 ns         1 WVZ      -0.501900
     15 C12         31.2010     4.4970     2.6870 ca         1 WVZ      -0.112300
     16 C14         33.3030     5.6810     2.7910 ca         1 WVZ      -0.110000
     17 C16         33.2600     3.3780     2.1140 ca         1 WVZ      -0.110000
     18 H1          29.4070     5.4370     3.3180 h1         1 WVZ       0.062700
     19 H3          35.0510     4.5570     2.2540 ha         1 WVZ       0.114000
     20 H4          31.3440     2.4400     2.0610 ha         1 WVZ       0.112000
     21 H5          27.5570     1.4380     1.7780 hc         1 WVZ       0.080700
     22 H6          29.2810     1.3640     1.5460 hc         1 WVZ       0.080700
     23 H7          27.3470     2.3240    -0.5500 ha         1 WVZ       0.115000
     24 H8          27.2980     4.3430    -1.9640 ha         1 WVZ       0.116000
     25 H9          28.3430     6.4430    -1.1520 ha         1 WVZ       0.116000
     26 H10         29.4250     6.4960     1.0620 ha         1 WVZ       0.115000
     27 H11         29.4230     3.5590     4.6990 hn         1 WVZ       0.319500
     28 H12         33.8520     6.5900     3.0010 ha         1 WVZ       0.114500
     29 H13         33.7770     2.4850     1.7890 ha         1 WVZ       0.114500
     30 H2          31.4030     6.5470     3.2800 ha         1 WVZ       0.112000
@<TRIPOS>BOND
     1     1    13 1   
     2     1    14 1   
     3     1    15 1   
     4     1    18 1   
     5     2    15 ar  
     6     2    16 ar  
     7     2    30 1   
     8     3    16 ar  
     9     3    17 ar  
    10     3    19 1   
    11     4    15 ar  
    12     4    17 ar  
    13     4    20 1   
    14     5     6 2   
    15     6     7 1   
    16     6    14 1   
    17     7     8 1   
    18     7    21 1   
    19     7    22 1   
    20     8     9 ar  
    21     8    13 ar  
    22     9    10 ar  
    23     9    23 1   
    24    10    11 ar  
    25    10    24 1   
    26    11    12 ar  
    27    11    25 1   
    28    12    13 ar  
    29    12    26 1   
    30    14    27 1   
    31    16    28 1   
    32    17    29 1   
@<TRIPOS>SUBSTRUCTURE
     1 WVZ         1 TEMP              0 ****  ****    0 ROOT
