@<TRIPOS>MOLECULE
WW0
   34    35     1     0     0
SMALL
abcg2


@<TRIPOS>ATOM
      1 C18        -47.5430   -29.1950     4.6060 ca         1 WW0       0.079400
      2 C15        -46.3210   -29.4790     6.3370 cc         1 WW0       0.659100
      3 C13        -48.3530   -28.8970     5.7300 ca         1 WW0       0.344500
      4 C11        -50.1500   -28.4100     4.4920 ca         1 WW0       0.331900
      5 C10        -49.4540   -28.6730     3.3170 ca         1 WW0      -0.119000
      6 C01        -45.1390   -32.5430     1.5130 c3         1 WW0      -0.089100
      7 C02        -44.3640   -31.2380     1.3450 c3         1 WW0      -0.089400
      8 C03        -45.2600   -30.0410     1.0250 c3         1 WW0       0.114700
      9 C04        -44.4800   -28.7850     0.6040 c3         1 WW0      -0.089400
     10 C05        -43.5140   -28.2460     1.6570 c3         1 WW0      -0.089100
     11 C09        -48.1150   -29.0780     3.3410 ca         1 WW0      -0.070600
     12 N06        -46.1280   -29.7620     2.1660 ns         1 WW0      -0.493900
     13 N12        -49.6110   -28.5170     5.7220 nb         1 WW0      -0.646000
     14 N14        -47.5300   -29.0920     6.8270 na         1 WW0      -0.433300
     15 N17        -46.2720   -29.5590     5.0280 nd         1 WW0      -0.691100
     16 O08        -47.9710   -29.1870     0.9670 o          1 WW0      -0.621100
     17 O16        -45.3350   -29.7320     7.1810 oh         1 WW0      -0.598600
     18 H111       -51.1860   -28.0990     4.4500 h4         1 WW0       0.030100
     19 H101       -49.9510   -28.5640     2.3640 ha         1 WW0       0.152000
     20 H011       -44.4640   -33.3730     1.7260 hc         1 WW0       0.034033
     21 H013       -45.8550   -32.4740     2.3340 hc         1 WW0       0.034033
     22 H012       -45.6950   -32.7840     0.6040 hc         1 WW0       0.034033
     23 H021       -43.6380   -31.3390     0.5340 hc         1 WW0       0.046450
     24 H022       -43.7880   -31.0310     2.2520 hc         1 WW0       0.046450
     25 H031       -45.9190   -30.3120     0.1980 h1         1 WW0       0.075700
     26 H042       -43.9350   -29.0230    -0.3140 hc         1 WW0       0.046450
     27 H041       -45.2070   -28.0110     0.3450 hc         1 WW0       0.046450
     28 H052       -43.0410   -27.3270     1.3060 hc         1 WW0       0.034033
     29 H051       -44.0330   -28.0160     2.5900 hc         1 WW0       0.034033
     30 H053       -42.7210   -28.9620     1.8810 hc         1 WW0       0.034033
     31 H061       -45.7410   -29.8400     3.1000 hn         1 WW0       0.346500
     32 H141       -47.7690   -28.9720     7.8000 hn         1 WW0       0.383000
     33 H161       -44.5430   -29.9900     6.6830 ho         1 WW0       0.513000
     34 C07        -47.3990   -29.3460     2.0500 c          1 WW0       0.610700
@<TRIPOS>BOND
     1     1     3 ar  
     2     1    11 ar  
     3     1    15 1   
     4     2    14 1   
     5     2    15 2   
     6     2    17 1   
     7     3    13 ar  
     8     3    14 1   
     9     4     5 ar  
    10     4    13 ar  
    11     4    18 1   
    12     5    11 ar  
    13     5    19 1   
    14     6     7 1   
    15     6    20 1   
    16     6    21 1   
    17     6    22 1   
    18     7     8 1   
    19     7    23 1   
    20     7    24 1   
    21     8     9 1   
    22     8    12 1   
    23     8    25 1   
    24     9    10 1   
    25     9    26 1   
    26     9    27 1   
    27    10    28 1   
    28    10    29 1   
    29    10    30 1   
    30    11    34 1   
    31    12    31 1   
    32    12    34 1   
    33    14    32 1   
    34    16    34 2   
    35    17    33 1   
@<TRIPOS>SUBSTRUCTURE
     1 WW0         1 TEMP              0 ****  ****    0 ROOT
