@<TRIPOS>MOLECULE
WW0
   34    35     1     0     0
SMALL
No Charge or Current Charge


@<TRIPOS>ATOM
      1 C18        -47.5870   -29.2250     4.6190 ca         1 WW0       0.079400
      2 C15        -46.3700   -29.7340     6.2780 cc         1 WW0       0.659100
      3 C13        -48.3380   -28.9430     5.7540 ca         1 WW0       0.344500
      4 C11        -50.1310   -28.2110     4.5310 ca         1 WW0       0.331900
      5 C10        -49.4530   -28.4640     3.3200 ca         1 WW0      -0.119000
      6 C01        -44.9900   -32.5530     1.7710 c3         1 WW0      -0.089100
      7 C02        -44.2790   -31.2310     1.4070 c3         1 WW0      -0.089400
      8 C03        -45.2470   -30.0840     1.0230 c3         1 WW0       0.114700
      9 C04        -44.5190   -28.8130     0.5100 c3         1 WW0      -0.089400
     10 C05        -43.6420   -28.0850     1.5550 c3         1 WW0      -0.089100
     11 C09        -48.1360   -28.9890     3.3360 ca         1 WW0      -0.070600
     12 N06        -46.1390   -29.7660     2.1380 ns         1 WW0      -0.493900
     13 N12        -49.5860   -28.4460     5.7500 nb         1 WW0      -0.646000
     14 N14        -47.5460   -29.2730     6.7960 na         1 WW0      -0.433300
     15 N17        -46.3230   -29.7340     4.9520 nd         1 WW0      -0.691100
     16 O08        -47.9230   -29.0410     0.9440 o          1 WW0      -0.621100
     17 O16        -45.3830   -30.1380     7.0560 oh         1 WW0      -0.598600
     18 H111       -51.1430   -27.8080     4.5230 h4         1 WW0       0.030100
     19 H101       -49.9560   -28.2500     2.3810 ha         1 WW0       0.152000
     20 H011       -44.2520   -33.3360     1.9830 hc         1 WW0       0.034033
     21 H013       -45.6200   -32.4310     2.6600 hc         1 WW0       0.034033
     22 H012       -45.6220   -32.8950     0.9420 hc         1 WW0       0.034033
     23 H021       -43.6000   -31.4210     0.5660 hc         1 WW0       0.046450
     24 H022       -43.6550   -30.9240     2.2550 hc         1 WW0       0.046450
     25 H031       -45.8670   -30.4550     0.1950 h1         1 WW0       0.075700
     26 H042       -43.8950   -29.0830    -0.3510 hc         1 WW0       0.046450
     27 H041       -45.2690   -28.1070     0.1330 hc         1 WW0       0.046450
     28 H052       -43.1990   -27.1840     1.1140 hc         1 WW0       0.034033
     29 H051       -44.2360   -27.7780     2.4240 hc         1 WW0       0.034033
     30 H053       -42.8230   -28.7270     1.9010 hc         1 WW0       0.034033
     31 H061       -45.8120   -29.9110     3.0900 hn         1 WW0       0.346500
     32 H141       -47.7700   -29.1980     7.7720 hn         1 WW0       0.383000
     33 H161       -44.7070   -30.3970     6.4000 ho         1 WW0       0.513000
     34 C07        -47.4100   -29.2590     2.0350 c          1 WW0       0.610700
@<TRIPOS>BOND
     1     1     3 ar  
     2     1    11 ar  
     3     1    15 1   
     4     2    14 1   
     5     2    15 2   
     6     2    17 1   
     7     3    13 ar  
     8     3    14 1   
     9     4     5 ar  
    10     4    13 ar  
    11     4    18 1   
    12     5    11 ar  
    13     5    19 1   
    14     6     7 1   
    15     6    20 1   
    16     6    21 1   
    17     6    22 1   
    18     7     8 1   
    19     7    23 1   
    20     7    24 1   
    21     8     9 1   
    22     8    12 1   
    23     8    25 1   
    24     9    10 1   
    25     9    26 1   
    26     9    27 1   
    27    10    28 1   
    28    10    29 1   
    29    10    30 1   
    30    11    34 1   
    31    12    31 1   
    32    12    34 1   
    33    14    32 1   
    34    16    34 2   
    35    17    33 1   
@<TRIPOS>SUBSTRUCTURE
     1 WW0         1 TEMP              0 ****  ****    0 ROOT
