@<TRIPOS>MOLECULE
WW1
   31    33     1     0     0
SMALL
No Charge or Current Charge


@<TRIPOS>ATOM
      1 C10        -43.0100   -30.3180     1.5140 cc         1 WW1       0.448400
      2 N12        -44.3950   -31.8870     1.8010 na         1 WW1      -0.123200
      3 C13        -44.5130   -34.9910    -2.6520 ca         1 WW1      -0.081300
      4 C15        -43.4760   -35.0290    -4.8650 ca         1 WW1      -0.110000
      5 C17        -42.3630   -36.1050    -2.9910 ca         1 WW1      -0.110000
      6 C01        -46.4230   -35.8070    -1.1990 c3         1 WW1      -0.088100
      7 C02        -45.6650   -34.5690    -1.7370 c3         1 WW1      -0.003400
      8 C03        -45.1570   -33.6450    -0.6050 c3         1 WW1       0.049600
      9 C05        -45.7570   -32.0600     1.6800 cc         1 WW1       0.473800
     10 C08        -44.2650   -31.2930     3.0110 cc         1 WW1       0.448000
     11 C14        -44.5330   -34.6480    -4.0190 ca         1 WW1      -0.104000
     12 C16        -42.3910   -35.7580    -4.3510 ca         1 WW1      -0.109000
     13 C18        -43.4190   -35.7240    -2.1440 ca         1 WW1      -0.104000
     14 N06        -46.3940   -31.6210     2.7580 nd         1 WW1      -0.291000
     15 N07        -45.4350   -31.0220     3.5650 nd         1 WW1      -0.367000
     16 N09        -43.3970   -30.2530     2.8400 na         1 WW1      -0.512000
     17 N11        -43.6230   -31.2520     0.8450 n2         1 WW1      -0.472800
     18 S04        -46.5580   -32.8690     0.3280 ss         1 WW1      -0.310300
     19 H101       -42.3270   -29.6030     1.0690 h5         1 WW1       0.073100
     20 H171       -41.5240   -36.6700    -2.5910 ha         1 WW1       0.112500
     21 H011       -47.3190   -35.5110    -0.6430 hc         1 WW1       0.042700
     22 H013       -46.7420   -36.4490    -2.0290 hc         1 WW1       0.042700
     23 H012       -45.7860   -36.4010    -0.5330 hc         1 WW1       0.042700
     24 H021       -46.3840   -33.9850    -2.3250 hc         1 WW1       0.062700
     25 H031       -44.5300   -34.2160     0.0920 h1         1 WW1       0.072200
     26 H032       -44.5450   -32.8480    -1.0460 h1         1 WW1       0.072200
     27 H141       -45.3660   -34.0840    -4.4320 ha         1 WW1       0.113000
     28 H161       -41.5740   -36.0530    -5.0060 ha         1 WW1       0.112000
     29 H181       -43.3830   -36.0010    -1.0930 ha         1 WW1       0.113000
     30 H091       -43.2000   -29.5120     3.4960 hn         1 WW1       0.394000
     31 H151       -43.5000   -34.7600    -5.9190 ha         1 WW1       0.112500
@<TRIPOS>BOND
     1     1    16 1   
     2     1    17 2   
     3     1    19 1   
     4     2     9 1   
     5     2    10 1   
     6     2    17 1   
     7     3     7 1   
     8     3    11 ar  
     9     3    13 ar  
    10     4    11 ar  
    11     4    12 ar  
    12     4    31 1   
    13     5    12 ar  
    14     5    13 ar  
    15     5    20 1   
    16     6     7 1   
    17     6    21 1   
    18     6    22 1   
    19     6    23 1   
    20     7     8 1   
    21     7    24 1   
    22     8    18 1   
    23     8    25 1   
    24     8    26 1   
    25     9    14 2   
    26     9    18 1   
    27    10    15 2   
    28    10    16 1   
    29    11    27 1   
    30    12    28 1   
    31    13    29 1   
    32    14    15 1   
    33    16    30 1   
@<TRIPOS>SUBSTRUCTURE
     1 WW1         1 TEMP              0 ****  ****    0 ROOT
