@<TRIPOS>MOLECULE
WW1
   31    33     1     0     0
SMALL
abcg2


@<TRIPOS>ATOM
      1 C10        -43.6030   -29.5400     1.2640 cc         1 WW1       0.448400
      2 N12        -44.7350   -31.2440     1.5710 na         1 WW1      -0.123200
      3 C13        -44.4860   -35.0640    -2.5870 ca         1 WW1      -0.081300
      4 C15        -43.1310   -34.7900    -4.5730 ca         1 WW1      -0.110000
      5 C17        -42.6370   -36.5590    -3.0300 ca         1 WW1      -0.110000
      6 C01        -46.5990   -35.7340    -1.3770 c3         1 WW1      -0.088100
      7 C02        -45.6290   -34.6020    -1.7110 c3         1 WW1      -0.003400
      8 C03        -45.0440   -33.9470    -0.4590 c3         1 WW1       0.049600
      9 C05        -45.4740   -32.3770     1.7500 cc         1 WW1       0.473800
     10 C08        -44.2430   -30.9460     2.7840 cc         1 WW1       0.448000
     11 C14        -44.1880   -34.3880    -3.7660 ca         1 WW1      -0.104000
     12 C16        -42.3510   -35.8780    -4.2070 ca         1 WW1      -0.109000
     13 C18        -43.6940   -36.1540    -2.2270 ca         1 WW1      -0.104000
     14 N06        -45.4030   -32.6940     3.0200 nd         1 WW1      -0.291000
     15 N07        -44.6330   -31.8000     3.6950 nd         1 WW1      -0.367000
     16 N09        -43.4980   -29.8280     2.5910 na         1 WW1      -0.512000
     17 N11        -44.3470   -30.3770     0.6070 n2         1 WW1      -0.472800
     18 S04        -46.3930   -33.1800     0.5220 ss         1 WW1      -0.310300
     19 H101       -43.1090   -28.6940     0.8140 h5         1 WW1       0.073100
     20 H171       -42.0350   -37.4090    -2.7350 ha         1 WW1       0.112500
     21 H011       -47.4850   -35.3640    -0.8590 hc         1 WW1       0.042700
     22 H013       -46.9380   -36.2280    -2.2870 hc         1 WW1       0.042700
     23 H012       -46.1350   -36.4840    -0.7360 hc         1 WW1       0.042700
     24 H021       -46.1770   -33.8320    -2.2640 hc         1 WW1       0.062700
     25 H031       -44.5320   -34.6790     0.1660 h1         1 WW1       0.072200
     26 H032       -44.3390   -33.1630    -0.7350 h1         1 WW1       0.072200
     27 H141       -44.7910   -33.5370    -4.0610 ha         1 WW1       0.113000
     28 H161       -41.5270   -36.1950    -4.8330 ha         1 WW1       0.112000
     29 H181       -43.9010   -36.6970    -1.3120 ha         1 WW1       0.113000
     30 H091       -42.9780   -29.3060     3.2810 hn         1 WW1       0.394000
     31 H151       -42.9180   -34.2520    -5.4880 ha         1 WW1       0.112500
@<TRIPOS>BOND
     1     1    16 1   
     2     1    17 2   
     3     1    19 1   
     4     2     9 1   
     5     2    10 1   
     6     2    17 1   
     7     3     7 1   
     8     3    11 ar  
     9     3    13 ar  
    10     4    11 ar  
    11     4    12 ar  
    12     4    31 1   
    13     5    12 ar  
    14     5    13 ar  
    15     5    20 1   
    16     6     7 1   
    17     6    21 1   
    18     6    22 1   
    19     6    23 1   
    20     7     8 1   
    21     7    24 1   
    22     8    18 1   
    23     8    25 1   
    24     8    26 1   
    25     9    14 2   
    26     9    18 1   
    27    10    15 2   
    28    10    16 1   
    29    11    27 1   
    30    12    28 1   
    31    13    29 1   
    32    14    15 1   
    33    16    30 1   
@<TRIPOS>SUBSTRUCTURE
     1 WW1         1 TEMP              0 ****  ****    0 ROOT
