@<TRIPOS>MOLECULE
WW2
   25    25     1     0     0
SMALL
bcc


@<TRIPOS>ATOM
      1 C1          -1.4360    -1.2410    -0.2430 c6         1 WW2      -0.092900
      2 F1           2.2420     1.2140     0.7620 f          1 WW2      -0.340400
      3 O1           1.8870    -1.2610     1.1360 o          1 WW2      -0.792300
      4 P1           1.9110    -0.2050     0.1040 p5         1 WW2       1.458300
      5 C2          -2.8230    -1.2360     0.3970 c6         1 WW2      -0.073900
      6 O2           0.5510     0.0840    -0.6640 os         1 WW2      -0.604200
      7 C3          -3.6510    -0.0480    -0.0810 c6         1 WW2      -0.078400
      8 C4          -2.9180     1.2670     0.1650 c6         1 WW2      -0.073900
      9 C5          -1.5310     1.2630    -0.4750 c6         1 WW2      -0.092900
     10 C6          -0.7280     0.0750     0.0210 c6         1 WW2       0.213100
     11 C7           3.1180    -0.3310    -1.2010 c3         1 WW2      -0.329300
     12 H1          -0.8390    -2.0690     0.1460 hc         1 WW2       0.056700
     13 H1A         -1.5300    -1.3860    -1.3240 hc         1 WW2       0.056700
     14 H2          -3.3310    -2.1750     0.1680 hc         1 WW2       0.044700
     15 H2A         -2.7210    -1.1960     1.4870 hc         1 WW2       0.044700
     16 H3          -3.8520    -0.1560    -1.1520 hc         1 WW2       0.043200
     17 H3A         -4.6210    -0.0370     0.4200 hc         1 WW2       0.043200
     18 H4          -3.4960     2.1060    -0.2260 hc         1 WW2       0.044700
     19 H4A         -2.8210     1.4340     1.2430 hc         1 WW2       0.044700
     20 H5          -1.6270     1.2050    -1.5640 hc         1 WW2       0.056700
     21 H5A         -1.0040     2.1920    -0.2430 hc         1 WW2       0.056700
     22 H6          -0.5670     0.1840     1.1010 h1         1 WW2       0.045700
     23 H7           2.9520    -1.2490    -1.7630 hc         1 WW2       0.089700
     24 H7A          3.0580     0.5180    -1.8790 hc         1 WW2       0.089700
     25 H7B          4.1150    -0.3700    -0.7660 hc         1 WW2       0.089700
@<TRIPOS>BOND
     1     1     5 1   
     2     1    10 1   
     3     1    12 1   
     4     1    13 1   
     5     2     4 1   
     6     3     4 2   
     7     4     6 1   
     8     4    11 1   
     9     5     7 1   
    10     5    14 1   
    11     5    15 1   
    12     6    10 1   
    13     7     8 1   
    14     7    16 1   
    15     7    17 1   
    16     8     9 1   
    17     8    18 1   
    18     8    19 1   
    19     9    10 1   
    20     9    20 1   
    21     9    21 1   
    22    10    22 1   
    23    11    23 1   
    24    11    24 1   
    25    11    25 1   
@<TRIPOS>SUBSTRUCTURE
     1 WW2         1 TEMP              0 ****  ****    0 ROOT
