@<TRIPOS>MOLECULE
WW2
   25    25     1     0     0
SMALL
No Charge or Current Charge


@<TRIPOS>ATOM
      1 C1          -1.3520    -1.1780     0.1330 c6         1 WW2      -0.092900
      2 F1           1.9690    -0.2600     1.3130 f          1 WW2      -0.340400
      3 O1           1.7290    -2.2270    -0.3890 o          1 WW2      -0.713000
      4 P1           1.8190    -0.7430    -0.2210 p5         1 WW2       1.536800
      5 C2          -2.7430    -1.0450     0.8070 c6         1 WW2      -0.073900
      6 O2           0.5720     0.1320    -0.7740 os         1 WW2      -0.627400
      7 C3          -3.6650    -0.0840     0.0190 c6         1 WW2      -0.078400
      8 C4          -3.0000     1.3010    -0.1590 c6         1 WW2      -0.073900
      9 C5          -1.6160     1.1690    -0.8420 c6         1 WW2      -0.092900
     10 C6          -0.6770     0.2130    -0.0650 c6         1 WW2       0.236300
     11 C7           3.2370     0.0500    -1.0460 c3         1 WW2      -0.487100
     12 H1          -0.7280    -1.8280     0.7590 hc         1 WW2       0.056700
     13 H1A         -1.4600    -1.6790    -0.8390 hc         1 WW2       0.056700
     14 H2          -3.2150    -2.0350     0.8830 hc         1 WW2       0.044700
     15 H2A         -2.6220    -0.6790     1.8360 hc         1 WW2       0.044700
     16 H3          -3.8960    -0.5150    -0.9660 hc         1 WW2       0.043200
     17 H3A         -4.6240     0.0270     0.5430 hc         1 WW2       0.043200
     18 H4          -3.6510     1.9530    -0.7580 hc         1 WW2       0.044700
     19 H4A         -2.8860     1.7870     0.8200 hc         1 WW2       0.044700
     20 H5          -1.7450     0.8020    -1.8700 hc         1 WW2       0.056700
     21 H5A         -1.1480     2.1590    -0.9220 hc         1 WW2       0.056700
     22 H6          -0.4880     0.6540     0.9250 h1         1 WW2       0.045700
     23 H7           3.1590    -0.1310    -2.1230 hc         1 WW2       0.089700
     24 H7A          3.2050     1.1240    -0.8410 hc         1 WW2       0.089700
     25 H7B          4.1620    -0.3840    -0.6540 hc         1 WW2       0.089700
@<TRIPOS>BOND
     1     1     5 1   
     2     1    10 1   
     3     1    12 1   
     4     1    13 1   
     5     2     4 1   
     6     3     4 2   
     7     4     6 1   
     8     4    11 1   
     9     5     7 1   
    10     5    14 1   
    11     5    15 1   
    12     6    10 1   
    13     7     8 1   
    14     7    16 1   
    15     7    17 1   
    16     8     9 1   
    17     8    18 1   
    18     8    19 1   
    19     9    10 1   
    20     9    20 1   
    21     9    21 1   
    22    10    22 1   
    23    11    23 1   
    24    11    24 1   
    25    11    25 1   
@<TRIPOS>SUBSTRUCTURE
     1 WW2         1 TEMP              0 ****  ****    0 ROOT
