@<TRIPOS>MOLECULE
WW3
   37    38     1     0     0
SMALL
No Charge or Current Charge


@<TRIPOS>ATOM
      1 O9          -5.4690    -0.7550     0.6490 o          1 WW3      -0.533000
      2 S7          -4.7060     0.2900    -0.0340 sy         1 WW3       1.143600
      3 O8          -5.0760     0.8230    -1.3430 o          1 WW3      -0.533000
      4 N10         -4.7730     1.5900     0.9540 n8         1 WW3      -0.994100
      5 C3          -2.9510    -0.0790     0.0040 ca         1 WW3      -0.339500
      6 C2          -2.4290    -0.9170     1.0130 ca         1 WW3      -0.010000
      7 C4          -2.0870     0.4630    -0.9710 ca         1 WW3      -0.010000
      8 C5          -0.7140     0.1670    -0.9320 ca         1 WW3      -0.137000
      9 C6          -0.1920    -0.6640     0.0740 ca         1 WW3       0.202400
     10 C1          -1.0550    -1.2070     1.0420 ca         1 WW3      -0.137000
     11 N11          1.1830    -0.9630     0.1030 ne         1 WW3      -0.372400
     12 N12          1.8910    -0.1610     0.7790 n2         1 WW3      -0.020700
     13 N13          3.2380    -0.4000     0.8220 nh         1 WW3      -0.455700
     14 C16          4.1000     0.5740     1.5180 c3         1 WW3       0.216300
     15 C15          5.0660     1.3520     0.5920 c3         1 WW3      -0.096900
     16 C17          6.1810     0.4810    -0.0360 c3         1 WW3      -0.072400
     17 C18          5.7910    -0.3220    -1.3050 c3         1 WW3      -0.072400
     18 C19          4.4250    -1.0600    -1.2990 c3         1 WW3      -0.096900
     19 C14          3.9080    -1.5080     0.0850 c3         1 WW3       0.216300
     20 H1          -3.8000     1.8840     0.9760 hn         1 WW3       0.473000
     21 H2          -5.2210     2.2700     0.3440 hn         1 WW3       0.473000
     22 H3          -3.0820    -1.3440     1.7730 ha         1 WW3       0.133500
     23 H4          -2.4700     1.1090    -1.7600 ha         1 WW3       0.133500
     24 H5          -0.0500     0.5840    -1.6850 ha         1 WW3       0.129000
     25 H6          -0.6550    -1.8530     1.8190 ha         1 WW3       0.129000
     26 H7           3.4720     1.3060     2.0440 h1         1 WW3       0.063700
     27 H8           4.6860     0.0560     2.2890 h1         1 WW3       0.063700
     28 H9           4.4990     1.8660    -0.1940 hc         1 WW3       0.053950
     29 H10          5.5420     2.1350     1.1950 hc         1 WW3       0.053950
     30 H11          7.0230     1.1320    -0.2990 hc         1 WW3       0.040200
     31 H12          6.5670    -0.2100     0.7250 hc         1 WW3       0.040200
     32 H13          5.8080     0.3550    -2.1690 hc         1 WW3       0.040200
     33 H14          6.5830    -1.0580    -1.4880 hc         1 WW3       0.040200
     34 H15          3.6660    -0.4220    -1.7670 hc         1 WW3       0.053950
     35 H16          4.5130    -1.9440    -1.9410 hc         1 WW3       0.053950
     36 H17          4.7480    -1.9010     0.6740 h1         1 WW3       0.063700
     37 H18          3.2230    -2.3540    -0.0540 h1         1 WW3       0.063700
@<TRIPOS>BOND
     1     1     2 2   
     2     2     3 2   
     3     2     4 1   
     4     2     5 1   
     5     4    20 1   
     6     4    21 1   
     7     5     6 ar  
     8     5     7 ar  
     9     6    10 ar  
    10     6    22 1   
    11     7     8 ar  
    12     7    23 1   
    13     8     9 ar  
    14     8    24 1   
    15     9    10 ar  
    16     9    11 1   
    17    10    25 1   
    18    11    12 2   
    19    12    13 1   
    20    13    14 1   
    21    13    19 1   
    22    14    15 1   
    23    14    26 1   
    24    14    27 1   
    25    15    16 1   
    26    15    28 1   
    27    15    29 1   
    28    16    17 1   
    29    16    30 1   
    30    16    31 1   
    31    17    18 1   
    32    17    32 1   
    33    17    33 1   
    34    18    19 1   
    35    18    34 1   
    36    18    35 1   
    37    19    36 1   
    38    19    37 1   
@<TRIPOS>SUBSTRUCTURE
     1 WW3         1 TEMP              0 ****  ****    0 ROOT
