@<TRIPOS>MOLECULE
WW3
   37    38     1     0     0
SMALL
bcc


@<TRIPOS>ATOM
      1 O9          -4.9960    -1.1840    -0.9020 o          1 WW3      -0.603800
      2 S7          -4.4910     0.0970    -0.4370 sy         1 WW3       1.285200
      3 O8          -4.7160     1.2980    -1.2260 o          1 WW3      -0.603800
      4 N10         -5.2060     0.3690     1.0200 n8         1 WW3      -0.883700
      5 C3          -2.7530    -0.0660    -0.1690 ca         1 WW3      -0.339500
      6 C2          -2.2120    -1.3190     0.0910 ca         1 WW3      -0.028000
      7 C4          -1.9390     1.0620    -0.2000 ca         1 WW3      -0.028000
      8 C5          -0.5840     0.9400     0.0360 ca         1 WW3      -0.155000
      9 C6          -0.0190    -0.3140     0.3040 ca         1 WW3       0.202400
     10 C1          -0.8550    -1.4340     0.3240 ca         1 WW3      -0.155000
     11 N11          1.3310    -0.5630     0.5450 ne         1 WW3      -0.372400
     12 N12          2.0320     0.4820     0.5890 n2         1 WW3      -0.020700
     13 N13          3.2870     0.3230     0.8490 nh         1 WW3      -0.455700
     14 C16          4.1200     1.5030     0.7490 c3         1 WW3       0.216300
     15 C15          5.0130     1.5070    -0.4860 c3         1 WW3      -0.096900
     16 C17          6.0510     0.3850    -0.5060 c3         1 WW3      -0.072400
     17 C18          5.5660    -0.9720    -1.0210 c3         1 WW3      -0.072400
     18 C19          4.2990    -1.5680    -0.3770 c3         1 WW3      -0.096900
     19 C14          3.9100    -0.9850     0.9800 c3         1 WW3       0.216300
     20 H1          -5.1100    -0.4050     1.6680 hn         1 WW3       0.417800
     21 H2          -4.9270     1.2420     1.4520 hn         1 WW3       0.417800
     22 H3          -2.8350    -2.2030     0.1090 ha         1 WW3       0.151500
     23 H4          -2.3520     2.0390    -0.4140 ha         1 WW3       0.151500
     24 H5           0.0390     1.8220     0.0060 ha         1 WW3       0.147000
     25 H6          -0.4220    -2.4050     0.5240 ha         1 WW3       0.147000
     26 H7           3.4580     2.3680     0.7470 h1         1 WW3       0.063700
     27 H8           4.7420     1.5600     1.6470 h1         1 WW3       0.063700
     28 H9           4.3970     1.4810    -1.3900 hc         1 WW3       0.053950
     29 H10          5.5290     2.4700    -0.4920 hc         1 WW3       0.053950
     30 H11          6.8860     0.6910    -1.1410 hc         1 WW3       0.040200
     31 H12          6.4760     0.2810     0.4970 hc         1 WW3       0.040200
     32 H13          5.4010    -0.8930    -2.0980 hc         1 WW3       0.040200
     33 H14          6.3920    -1.6770    -0.9010 hc         1 WW3       0.040200
     34 H15          3.4460    -1.4590    -1.0480 hc         1 WW3       0.053950
     35 H16          4.4360    -2.6430    -0.2490 hc         1 WW3       0.053950
     36 H17          4.7790    -0.8690     1.6310 h1         1 WW3       0.063700
     37 H18          3.2100    -1.6450     1.4890 h1         1 WW3       0.063700
@<TRIPOS>BOND
     1     1     2 2   
     2     2     3 2   
     3     2     4 1   
     4     2     5 1   
     5     4    20 1   
     6     4    21 1   
     7     5     6 ar  
     8     5     7 ar  
     9     6    10 ar  
    10     6    22 1   
    11     7     8 ar  
    12     7    23 1   
    13     8     9 ar  
    14     8    24 1   
    15     9    10 ar  
    16     9    11 1   
    17    10    25 1   
    18    11    12 2   
    19    12    13 1   
    20    13    14 1   
    21    13    19 1   
    22    14    15 1   
    23    14    26 1   
    24    14    27 1   
    25    15    16 1   
    26    15    28 1   
    27    15    29 1   
    28    16    17 1   
    29    16    30 1   
    30    16    31 1   
    31    17    18 1   
    32    17    32 1   
    33    17    33 1   
    34    18    19 1   
    35    18    34 1   
    36    18    35 1   
    37    19    36 1   
    38    19    37 1   
@<TRIPOS>SUBSTRUCTURE
     1 WW3         1 TEMP              0 ****  ****    0 ROOT
