@<TRIPOS>MOLECULE
WW4
   35    38     1     0     0
SMALL
abcg2


@<TRIPOS>ATOM
      1 N12        -47.8610   -30.2150     5.8910 na         1 WW4      -0.327400
      2 C13        -48.7670   -29.8010     4.9340 cc         1 WW4      -0.187100
      3 C15        -46.6930   -29.6460     4.0610 ca         1 WW4      -0.254800
      4 C01        -44.5370   -30.7790    -0.5390 c3         1 WW4      -0.102700
      5 C02        -44.4840   -29.2990    -0.0890 c5         1 WW4      -0.077700
      6 C03        -45.8350   -28.5660    -0.1440 c5         1 WW4      -0.092400
      7 C04        -46.4650   -28.7640     1.2400 c5         1 WW4       0.222800
      8 C06        -44.0650   -29.1290     1.3730 c5         1 WW4       0.233800
      9 C07        -45.4520   -29.5110     3.3810 ca         1 WW4       0.445900
     10 C09        -44.3850   -30.2510     5.3030 ca         1 WW4       0.179900
     11 C11        -46.6000   -30.1260     5.3850 ca         1 WW4       0.149500
     12 C14        -48.0930   -29.4440     3.7980 cd         1 WW4      -0.203200
     13 C16        -45.3370   -31.6940     0.3340 cc         1 WW4       0.442700
     14 C18        -45.8550   -33.0020     2.0490 cd         1 WW4       0.284900
     15 C19        -47.0700   -33.0220     1.4370 cc         1 WW4      -0.254000
     16 N05        -45.3350   -29.1130     2.1030 nh         1 WW4      -0.779300
     17 N08        -44.3110   -29.8100     4.0450 nb         1 WW4      -0.296000
     18 N10        -45.4710   -30.4430     6.0410 nb         1 WW4      -0.244000
     19 N17        -44.8840   -32.2630     1.4180 nd         1 WW4      -0.633000
     20 S20        -47.0040   -32.0730     0.0040 ss         1 WW4      -0.079400
     21 H121       -48.0890   -30.5320     6.8200 hn         1 WW4       0.360000
     22 H131       -49.8230   -29.7960     5.1440 h4         1 WW4       0.214000
     23 H012       -43.5160   -31.1660    -0.5610 hc         1 WW4       0.063700
     24 H011       -44.9240   -30.8150    -1.5590 hc         1 WW4       0.063700
     25 H021       -43.7630   -28.8100    -0.7440 hc         1 WW4       0.064700
     26 H031       -45.6600   -27.5050    -0.3230 hc         1 WW4       0.054700
     27 H032       -46.4830   -28.9340    -0.9400 hc         1 WW4       0.054700
     28 H041       -46.9630   -27.8600     1.5950 h1         1 WW4       0.052700
     29 H042       -47.1940   -29.5720     1.2350 h1         1 WW4       0.052700
     30 H062       -43.4390   -29.9380     1.7380 h1         1 WW4       0.072200
     31 H061       -43.5270   -28.1870     1.5170 h1         1 WW4       0.072200
     32 H091       -43.4350   -30.4790     5.7760 h5         1 WW4       0.042100
     33 H141       -48.5550   -29.0820     2.8980 ha         1 WW4       0.199000
     34 H181       -45.6170   -33.5200     2.9680 h4         1 WW4       0.046100
     35 H191       -47.9680   -33.5350     1.7380 h4         1 WW4       0.161000
@<TRIPOS>BOND
     1     1     2 1   
     2     1    11 1   
     3     1    21 1   
     4     2    12 2   
     5     2    22 1   
     6     3     9 ar  
     7     3    11 ar  
     8     3    12 1   
     9     4     5 1   
    10     4    13 1   
    11     4    23 1   
    12     4    24 1   
    13     5     6 1   
    14     5     8 1   
    15     5    25 1   
    16     6     7 1   
    17     6    26 1   
    18     6    27 1   
    19     7    16 1   
    20     7    28 1   
    21     7    29 1   
    22     8    16 1   
    23     8    30 1   
    24     8    31 1   
    25     9    16 1   
    26     9    17 ar  
    27    10    17 ar  
    28    10    18 ar  
    29    10    32 1   
    30    11    18 ar  
    31    12    33 1   
    32    13    19 2   
    33    13    20 1   
    34    14    15 2   
    35    14    19 1   
    36    14    34 1   
    37    15    20 1   
    38    15    35 1   
@<TRIPOS>SUBSTRUCTURE
     1 WW4         1 TEMP              0 ****  ****    0 ROOT
