@<TRIPOS>MOLECULE
WW4
   35    38     1     0     0
SMALL
No Charge or Current Charge


@<TRIPOS>ATOM
      1 N12        -47.9040   -30.0810     6.0070 na         1 WW4      -0.327400
      2 C13        -48.8260   -29.9030     4.9560 cc         1 WW4      -0.187100
      3 C15        -46.6280   -29.6500     4.2230 ca         1 WW4      -0.254800
      4 C01        -44.6590   -30.7970    -0.6160 c3         1 WW4      -0.102700
      5 C02        -44.4720   -29.3380    -0.0860 c5         1 WW4      -0.077700
      6 C03        -45.7380   -28.4330    -0.0740 c5         1 WW4      -0.092400
      7 C04        -46.4420   -28.8040     1.2560 c5         1 WW4       0.222800
      8 C06        -44.0110   -29.2150     1.3940 c5         1 WW4       0.233800
      9 C07        -45.4160   -29.4550     3.5180 ca         1 WW4       0.445900
     10 C09        -44.3200   -29.8360     5.5170 ca         1 WW4       0.179900
     11 C11        -46.5980   -29.9330     5.5700 ca         1 WW4       0.149500
     12 C14        -48.0320   -29.6390     3.8570 cd         1 WW4      -0.203200
     13 C16        -45.4620   -31.7510     0.2340 cc         1 WW4       0.442700
     14 C18        -45.9040   -33.2680     1.7950 cd         1 WW4       0.284900
     15 C19        -47.1420   -33.1930     1.2000 cc         1 WW4      -0.254000
     16 N05        -45.3050   -29.1630     2.1350 nh         1 WW4      -0.779300
     17 N08        -44.2490   -29.5550     4.1960 nb         1 WW4      -0.296000
     18 N10        -45.4410   -30.0310     6.2450 nb         1 WW4      -0.244000
     19 N17        -44.9320   -32.4610     1.2230 nd         1 WW4      -0.633000
     20 S20        -47.1320   -32.0930    -0.1480 ss         1 WW4      -0.079400
     21 H121       -48.1510   -30.2930     6.9690 hn         1 WW4       0.360000
     22 H131       -49.9060   -29.9780     5.0720 h4         1 WW4       0.214000
     23 H012       -43.6670   -31.2400    -0.7660 hc         1 WW4       0.063700
     24 H011       -45.1040   -30.7580    -1.6180 hc         1 WW4       0.063700
     25 H021       -43.7130   -28.8960    -0.7430 hc         1 WW4       0.064700
     26 H031       -45.4550   -27.3740    -0.0710 hc         1 WW4       0.054700
     27 H032       -46.3850   -28.5870    -0.9450 hc         1 WW4       0.054700
     28 H041       -47.0210   -27.9560     1.6470 h1         1 WW4       0.052700
     29 H042       -47.1210   -29.6530     1.1170 h1         1 WW4       0.052700
     30 H062       -43.3800   -30.0660     1.6890 h1         1 WW4       0.072200
     31 H061       -43.4340   -28.2930     1.5540 h1         1 WW4       0.072200
     32 H091       -43.3740   -29.9120     6.0500 h5         1 WW4       0.042100
     33 H141       -48.4410   -29.4560     2.8670 ha         1 WW4       0.199000
     34 H181       -45.6490   -33.8960     2.6410 h4         1 WW4       0.046100
     35 H191       -48.0470   -33.7230     1.4620 h4         1 WW4       0.161000
@<TRIPOS>BOND
     1     1     2 1   
     2     1    11 1   
     3     1    21 1   
     4     2    12 2   
     5     2    22 1   
     6     3     9 ar  
     7     3    11 ar  
     8     3    12 1   
     9     4     5 1   
    10     4    13 1   
    11     4    23 1   
    12     4    24 1   
    13     5     6 1   
    14     5     8 1   
    15     5    25 1   
    16     6     7 1   
    17     6    26 1   
    18     6    27 1   
    19     7    16 1   
    20     7    28 1   
    21     7    29 1   
    22     8    16 1   
    23     8    30 1   
    24     8    31 1   
    25     9    16 1   
    26     9    17 ar  
    27    10    17 ar  
    28    10    18 ar  
    29    10    32 1   
    30    11    18 ar  
    31    12    33 1   
    32    13    19 2   
    33    13    20 1   
    34    14    15 2   
    35    14    19 1   
    36    14    34 1   
    37    15    20 1   
    38    15    35 1   
@<TRIPOS>SUBSTRUCTURE
     1 WW4         1 TEMP              0 ****  ****    0 ROOT
