@<TRIPOS>MOLECULE
WW6
   40    41     1     0     0
SMALL
No Charge or Current Charge


@<TRIPOS>ATOM
      1 Cl1          2.6120     1.7590     0.5470 cl         1 WW6      -0.205000
      2 C5           3.3560     0.1940     0.8910 ca         1 WW6       0.146000
      3 C6           3.8460    -0.5380    -0.1980 ca         1 WW6      -0.108000
      4 C7           4.4350    -1.7890     0.0070 ca         1 WW6      -0.072000
      5 C8           4.5470    -2.3100     1.3050 ca         1 WW6      -0.130000
      6 C9           4.0770    -1.5890     2.4320 ca         1 WW6       0.048000
      7 C10          3.4600    -0.3230     2.2080 ca         1 WW6      -0.055000
      8 C4           2.9470     0.4110     3.3000 ca         1 WW6      -0.034000
      9 C3           3.0350    -0.0970     4.5990 ca         1 WW6      -0.135000
     10 C2           3.6440    -1.3340     4.8340 ca         1 WW6       0.013000
     11 C1           4.1780    -2.0920     3.7690 ca         1 WW6      -0.302500
     12 S1           4.9850    -3.6570     4.2330 sy         1 WW6       1.186600
     13 O1           5.0580    -3.7900     5.6910 o          1 WW6      -0.544500
     14 O2           6.1600    -3.8730     3.3890 o          1 WW6      -0.544500
     15 N1           3.9060    -4.8270     3.7320 n7         1 WW6      -0.901300
     16 C11          2.5510    -4.4450     3.2990 c3         1 WW6       0.216800
     17 C12          1.7130    -5.7020     2.9710 c3         1 WW6      -0.070400
     18 C13          1.4730    -6.6730     4.1570 c3         1 WW6      -0.069400
     19 C14          0.6580    -6.0670     5.3240 c3         1 WW6      -0.083400
     20 C15          0.3700    -7.0900     6.4420 c3         1 WW6       0.153800
     21 N2          -0.4170    -6.4900     7.5360 n8         1 WW6      -1.005200
     22 H6           3.7610    -0.1360    -1.2040 ha         1 WW6       0.135000
     23 H7           4.8030    -2.3610    -0.8420 ha         1 WW6       0.125000
     24 H8           4.9890    -3.2930     1.3930 ha         1 WW6       0.127000
     25 H4           2.4700     1.3760     3.1590 ha         1 WW6       0.131000
     26 H3           2.6320     0.4740     5.4320 ha         1 WW6       0.126000
     27 H21          3.7000    -1.6920     5.8600 ha         1 WW6       0.146000
     28 H17          4.4200    -5.2400     2.9570 hn         1 WW6       0.487000
     29 H11          2.0390    -3.8680     4.0800 h1         1 WW6       0.049200
     30 H8L          2.5850    -3.8190     2.3970 h1         1 WW6       0.049200
     31 H12          0.7420    -5.3780     2.5780 hc         1 WW6       0.044700
     32 H8M          2.2040    -6.2510     2.1590 hc         1 WW6       0.044700
     33 H13          0.9410    -7.5540     3.7760 hc         1 WW6       0.044200
     34 H8O          2.4370    -7.0350     4.5360 hc         1 WW6       0.044200
     35 H14          1.2060    -5.2190     5.7520 hc         1 WW6       0.050200
     36 H8N         -0.2920    -5.6780     4.9370 hc         1 WW6       0.050200
     37 H15         -0.1930    -7.9390     6.0310 h1         1 WW6       0.026700
     38 H8P          1.3170    -7.4660     6.8540 h1         1 WW6       0.026700
     39 H23         -0.5310    -7.1840     8.2840 hn         1 WW6       0.393500
     40 H22          0.1410    -5.7500     7.9790 hn         1 WW6       0.393500
@<TRIPOS>BOND
     1     1     2 1   
     2     2     3 ar  
     3     2     7 ar  
     4     3     4 ar  
     5     3    22 1   
     6     4     5 ar  
     7     4    23 1   
     8     5     6 ar  
     9     5    24 1   
    10     6     7 ar  
    11     6    11 ar  
    12     7     8 ar  
    13     8     9 ar  
    14     8    25 1   
    15     9    10 ar  
    16     9    26 1   
    17    10    11 ar  
    18    10    27 1   
    19    11    12 1   
    20    12    13 2   
    21    12    14 2   
    22    12    15 1   
    23    15    16 1   
    24    15    28 1   
    25    16    17 1   
    26    16    29 1   
    27    16    30 1   
    28    17    18 1   
    29    17    31 1   
    30    17    32 1   
    31    18    19 1   
    32    18    33 1   
    33    18    34 1   
    34    19    20 1   
    35    19    35 1   
    36    19    36 1   
    37    20    21 1   
    38    20    37 1   
    39    20    38 1   
    40    21    39 1   
    41    21    40 1   
@<TRIPOS>SUBSTRUCTURE
     1 WW6         1 TEMP              0 ****  ****    0 ROOT
