@<TRIPOS>MOLECULE
WW6
   40    41     1     0     0
SMALL
abcg2


@<TRIPOS>ATOM
      1 CL1          3.8990     2.0380     0.4410 cl         1 WW6      -0.205000
      2 C5           4.2240     0.3600     0.8230 ca         1 WW6       0.146000
      3 C6           4.7980    -0.4210    -0.1430 ca         1 WW6      -0.108000
      4 C7           5.0780    -1.7690     0.1410 ca         1 WW6      -0.072000
      5 C8           4.7820    -2.3090     1.3650 ca         1 WW6      -0.130000
      6 C9           4.1780    -1.5260     2.3780 ca         1 WW6       0.048000
      7 C10          3.8890    -0.1460     2.1070 ca         1 WW6      -0.055000
      8 C4           3.2910     0.6550     3.1090 ca         1 WW6      -0.034000
      9 C3           2.9770     0.1340     4.3340 ca         1 WW6      -0.135000
     10 C2           3.2400    -1.2180     4.6160 ca         1 WW6       0.013000
     11 C1           3.8250    -2.0230     3.6710 ca         1 WW6      -0.302500
     12 S1           4.0660    -3.7360     4.1120 sy         1 WW6       1.186600
     13 O1           3.6270    -3.8820     5.4790 o          1 WW6      -0.544500
     14 O2           5.4110    -4.1380     3.7670 o          1 WW6      -0.544500
     15 N1           3.0720    -4.6240     3.1790 n7         1 WW6      -0.901300
     16 C11          1.6180    -4.3990     3.2070 c3         1 WW6       0.216800
     17 C12          0.8640    -5.7160     3.0550 c3         1 WW6      -0.070400
     18 C13          1.1490    -6.7350     4.1600 c3         1 WW6      -0.069400
     19 C14          0.7370    -6.2750     5.5560 c3         1 WW6      -0.083400
     20 C15          1.0180    -7.3230     6.6240 c3         1 WW6       0.153800
     21 N2           0.6190    -6.8380     7.9550 n8         1 WW6      -1.005200
     22 H6           5.0380    -0.0030    -1.1110 ha         1 WW6       0.135000
     23 H7           5.5400    -2.3820    -0.6220 ha         1 WW6       0.125000
     24 H8           5.0410    -3.3370     1.5590 ha         1 WW6       0.127000
     25 H4           3.0820     1.6930     2.8930 ha         1 WW6       0.131000
     26 H3           2.5200     0.7560     5.0920 ha         1 WW6       0.126000
     27 H21          2.9800    -1.6290     5.5790 ha         1 WW6       0.146000
     28 H17          3.4640    -4.8250     2.2670 hn         1 WW6       0.487000
     29 H11          1.3760    -3.9280     4.1580 h1         1 WW6       0.049200
     30 H8L          1.3360    -3.7020     2.4140 h1         1 WW6       0.049200
     31 H12         -0.2050    -5.4810     3.0300 hc         1 WW6       0.044700
     32 H8M          1.1120    -6.1520     2.0830 hc         1 WW6       0.044700
     33 H13          0.6240    -7.6640     3.9180 hc         1 WW6       0.044200
     34 H8O          2.2170    -6.9750     4.1580 hc         1 WW6       0.044200
     35 H14          1.2750    -5.3600     5.8220 hc         1 WW6       0.050200
     36 H8N         -0.3300    -6.0280     5.5660 hc         1 WW6       0.050200
     37 H15          0.4430    -8.2290     6.4100 h1         1 WW6       0.026700
     38 H8P          2.0800    -7.6030     6.5770 h1         1 WW6       0.026700
     39 H23          0.8110    -7.5510     8.6520 hn         1 WW6       0.393500
     40 H22          1.1970    -6.0420     8.2070 hn         1 WW6       0.393500
@<TRIPOS>BOND
     1     1     2 1   
     2     2     3 ar  
     3     2     7 ar  
     4     3     4 ar  
     5     3    22 1   
     6     4     5 ar  
     7     4    23 1   
     8     5     6 ar  
     9     5    24 1   
    10     6     7 ar  
    11     6    11 ar  
    12     7     8 ar  
    13     8     9 ar  
    14     8    25 1   
    15     9    10 ar  
    16     9    26 1   
    17    10    11 ar  
    18    10    27 1   
    19    11    12 1   
    20    12    13 2   
    21    12    14 2   
    22    12    15 1   
    23    15    16 1   
    24    15    28 1   
    25    16    17 1   
    26    16    29 1   
    27    16    30 1   
    28    17    18 1   
    29    17    31 1   
    30    17    32 1   
    31    18    19 1   
    32    18    33 1   
    33    18    34 1   
    34    19    20 1   
    35    19    35 1   
    36    19    36 1   
    37    20    21 1   
    38    20    37 1   
    39    20    38 1   
    40    21    39 1   
    41    21    40 1   
@<TRIPOS>SUBSTRUCTURE
     1 WW6         1 TEMP              0 ****  ****    0 ROOT
