@<TRIPOS>MOLECULE
WW7
   43    44     1     0     0
SMALL
abcg2


@<TRIPOS>ATOM
      1 S1           2.6000     0.0400    -0.6740 sy         1 WW7       1.139600
      2 O1           3.2070     1.1520    -1.3930 o          1 WW7      -0.544000
      3 O2           3.4390    -1.1110    -0.3670 o          1 WW7      -0.544000
      4 N1           1.9040     0.6770     0.6720 n7         1 WW7      -0.891300
      5 C4          -0.9180    -1.6620    -3.0140 ca         1 WW7      -0.034000
      6 C3           0.0820    -2.4630    -2.5470 ca         1 WW7      -0.138000
      7 C2           1.1460    -1.9110    -1.8160 ca         1 WW7       0.003000
      8 C1           1.1850    -0.5650    -1.5690 ca         1 WW7      -0.254500
      9 C9           0.1640     0.3140    -2.0370 ca         1 WW7       0.058000
     10 C10         -0.9090    -0.2680    -2.7750 ca         1 WW7      -0.054000
     11 C5          -1.9390     0.5870    -3.2450 ca         1 WW7       0.136000
     12 C6          -1.9260     1.9310    -3.0090 ca         1 WW7      -0.105000
     13 C7          -0.8640     2.4880    -2.2800 ca         1 WW7      -0.083000
     14 C8           0.1550     1.7100    -1.8060 ca         1 WW7      -0.103000
     15 C11          1.4390    -0.2350     1.7160 c3         1 WW7       0.206800
     16 C12          0.5810     0.5260     2.7130 c3         1 WW7      -0.080400
     17 C14         -0.7070     0.3910     4.8940 c3         1 WW7      -0.074400
     18 C13          0.1700    -0.3480     3.8900 c3         1 WW7      -0.076400
     19 C15         -1.0570    -0.4540     6.1110 c3         1 WW7      -0.079400
     20 C16         -1.9310     0.2860     7.1120 c3         1 WW7       0.149800
     21 N2          -2.2070    -0.5420     8.2770 n8         1 WW7      -0.995200
     22 HN1          2.4510     1.4600     1.0200 hn         1 WW7       0.486000
     23 H4          -1.7300    -2.1030    -3.5750 ha         1 WW7       0.129000
     24 H3           0.0640    -3.5270    -2.7370 ha         1 WW7       0.124000
     25 H2           1.9290    -2.5610    -1.4520 ha         1 WW7       0.146000
     26 H6          -2.7230     2.5630    -3.3770 ha         1 WW7       0.132000
     27 H7          -0.8580     3.5530    -2.0930 ha         1 WW7       0.123000
     28 H8           0.9490     2.1840    -1.2540 ha         1 WW7       0.134000
     29 H111         2.2770    -0.7170     2.2270 h1         1 WW7       0.050700
     30 H112         0.8420    -1.0220     1.2500 h1         1 WW7       0.050700
     31 H121        -0.3050     0.9160     2.2040 hc         1 WW7       0.049700
     32 H122         1.1380     1.3930     3.0830 hc         1 WW7       0.049700
     33 H141        -1.6250     0.7230     4.3990 hc         1 WW7       0.038200
     34 H142        -0.1920     1.3020     5.2190 hc         1 WW7       0.038200
     35 H131         1.0680    -0.7170     4.3960 hc         1 WW7       0.041200
     36 H132        -0.3620    -1.2340     3.5280 hc         1 WW7       0.041200
     37 H151        -0.1390    -0.7800     6.6110 hc         1 WW7       0.046200
     38 H152        -1.5730    -1.3660     5.7870 hc         1 WW7       0.046200
     39 H161        -2.8370     0.6390     6.5990 h1         1 WW7       0.026200
     40 H162        -1.4020     1.1840     7.4470 h1         1 WW7       0.026200
     41 HN21        -2.7780    -0.0240     8.9330 hn         1 WW7       0.392000
     42 HN22        -2.7720    -1.3340     7.9950 hn         1 WW7       0.392000
     43 CL1         -3.2620    -0.0800    -4.1440 cl         1 WW7      -0.200000
@<TRIPOS>BOND
     1     1     2 2   
     2     1     3 2   
     3     1     4 1   
     4     1     8 1   
     5     4    15 1   
     6     4    22 1   
     7     5     6 ar  
     8     5    10 ar  
     9     5    23 1   
    10     6     7 ar  
    11     6    24 1   
    12     7     8 ar  
    13     7    25 1   
    14     8     9 ar  
    15     9    10 ar  
    16     9    14 ar  
    17    10    11 ar  
    18    11    12 ar  
    19    11    43 1   
    20    12    13 ar  
    21    12    26 1   
    22    13    14 ar  
    23    13    27 1   
    24    14    28 1   
    25    15    16 1   
    26    15    29 1   
    27    15    30 1   
    28    16    18 1   
    29    16    31 1   
    30    16    32 1   
    31    17    18 1   
    32    17    19 1   
    33    17    33 1   
    34    17    34 1   
    35    18    35 1   
    36    18    36 1   
    37    19    20 1   
    38    19    37 1   
    39    19    38 1   
    40    20    21 1   
    41    20    39 1   
    42    20    40 1   
    43    21    41 1   
    44    21    42 1   
@<TRIPOS>SUBSTRUCTURE
     1 WW7         1 TEMP              0 ****  ****    0 ROOT
