@<TRIPOS>MOLECULE
WW7
   43    44     1     0     0
SMALL
No Charge or Current Charge


@<TRIPOS>ATOM
      1 S1           2.7890     0.3460    -0.7810 sy         1 WW7       1.139600
      2 O1           3.1400     1.5500    -1.5360 o          1 WW7      -0.544000
      3 O2           3.7900    -0.6540    -0.4050 o          1 WW7      -0.544000
      4 N1           2.1560     0.9030     0.6580 n7         1 WW7      -0.891300
      5 C4          -0.7660    -1.8560    -2.7830 ca         1 WW7      -0.034000
      6 C3           0.4000    -2.5320    -2.4070 ca         1 WW7      -0.138000
      7 C2           1.4530    -1.8390    -1.8000 ca         1 WW7       0.003000
      8 C1           1.3570    -0.4520    -1.5580 ca         1 WW7      -0.254500
      9 C9           0.1680     0.2460    -1.9300 ca         1 WW7       0.058000
     10 C10         -0.8970    -0.4700    -2.5490 ca         1 WW7      -0.054000
     11 C5          -2.0840     0.2110    -2.9240 ca         1 WW7       0.136000
     12 C6          -2.2190     1.5840    -2.6820 ca         1 WW7      -0.105000
     13 C7          -1.1840     2.2930    -2.0640 ca         1 WW7      -0.083000
     14 C8          -0.0040     1.6330    -1.6910 ca         1 WW7      -0.103000
     15 C11          1.2920    -0.0070     1.4270 c3         1 WW7       0.206800
     16 C12          0.8950     0.6560     2.7590 c3         1 WW7      -0.080400
     17 C14         -0.4420     0.4360     4.9520 c3         1 WW7      -0.074400
     18 C13         -0.0380    -0.2280     3.6160 c3         1 WW7      -0.076400
     19 C15         -1.3760    -0.4460     5.8090 c3         1 WW7      -0.079400
     20 C16         -1.7740     0.2220     7.1410 c3         1 WW7       0.149800
     21 N2          -2.6620    -0.6440     7.9380 n8         1 WW7      -0.995200
     22 HN1          3.0130     1.0670     1.1830 hn         1 WW7       0.486000
     23 H4          -1.5610    -2.4290    -3.2520 ha         1 WW7       0.129000
     24 H3           0.4890    -3.6010    -2.5890 ha         1 WW7       0.124000
     25 H2           2.3480    -2.3950    -1.5230 ha         1 WW7       0.146000
     26 H6          -3.1330     2.0990    -2.9710 ha         1 WW7       0.132000
     27 H7          -1.2940     3.3580    -1.8710 ha         1 WW7       0.123000
     28 H8           0.7600     2.2280    -1.2050 ha         1 WW7       0.134000
     29 H111         1.8070    -0.9550     1.6360 h1         1 WW7       0.050700
     30 H112         0.3740    -0.2400     0.8700 h1         1 WW7       0.050700
     31 H121         0.3950     1.6100     2.5480 hc         1 WW7       0.049700
     32 H122         1.8010     0.8870     3.3330 hc         1 WW7       0.049700
     33 H141        -0.9410     1.3910     4.7430 hc         1 WW7       0.038200
     34 H142         0.4640     0.6670     5.5270 hc         1 WW7       0.038200
     35 H131         0.4610    -1.1820     3.8250 hc         1 WW7       0.041200
     36 H132        -0.9440    -0.4590     3.0410 hc         1 WW7       0.041200
     37 H151        -0.8760    -1.4000     6.0190 hc         1 WW7       0.046200
     38 H152        -2.2810    -0.6760     5.2340 hc         1 WW7       0.046200
     39 H161        -2.2940     1.1690     6.9400 h1         1 WW7       0.026200
     40 H162        -0.8730     0.4380     7.7310 h1         1 WW7       0.026200
     41 HN21        -2.9530    -0.1370     8.7830 hn         1 WW7       0.392000
     42 HN22        -3.5420    -0.7800     7.4250 hn         1 WW7       0.392000
     43 Cl1         -3.4390    -0.6150    -3.7000 cl         1 WW7      -0.200000
@<TRIPOS>BOND
     1     1     2 2   
     2     1     3 2   
     3     1     4 1   
     4     1     8 1   
     5     4    15 1   
     6     4    22 1   
     7     5     6 ar  
     8     5    10 ar  
     9     5    23 1   
    10     6     7 ar  
    11     6    24 1   
    12     7     8 ar  
    13     7    25 1   
    14     8     9 ar  
    15     9    10 ar  
    16     9    14 ar  
    17    10    11 ar  
    18    11    12 ar  
    19    11    43 1   
    20    12    13 ar  
    21    12    26 1   
    22    13    14 ar  
    23    13    27 1   
    24    14    28 1   
    25    15    16 1   
    26    15    29 1   
    27    15    30 1   
    28    16    18 1   
    29    16    31 1   
    30    16    32 1   
    31    17    18 1   
    32    17    19 1   
    33    17    33 1   
    34    17    34 1   
    35    18    35 1   
    36    18    36 1   
    37    19    20 1   
    38    19    37 1   
    39    19    38 1   
    40    20    21 1   
    41    20    39 1   
    42    20    40 1   
    43    21    41 1   
    44    21    42 1   
@<TRIPOS>SUBSTRUCTURE
     1 WW7         1 TEMP              0 ****  ****    0 ROOT
