@<TRIPOS>MOLECULE
WW8
   82    87     1     0     0
SMALL
abcg2


@<TRIPOS>ATOM
      1 C1          -4.5000    -2.9570     1.1530 ca         1 WW8      -0.126000
      2 C2          -5.7520    -2.3860     1.2150 ca         1 WW8       0.147000
      3 CL3         -7.0580    -3.3040     1.8990 cl         1 WW8      -0.205000
      4 C4          -6.0230    -1.0900     0.7490 ca         1 WW8      -0.134000
      5 C5          -5.0130    -0.3280     0.2020 ca         1 WW8      -0.036000
      6 C6          -3.7260    -0.8660     0.1190 ca         1 WW8      -0.094800
      7 C7          -3.4920    -2.1700     0.5990 ca         1 WW8      -0.039200
      8 N8          -2.1710    -2.4460     0.4050 na         1 WW8      -0.206700
      9 C9          -1.5660    -1.3780    -0.1940 cc         1 WW8      -0.110300
     10 C10         -0.1430    -1.3930    -0.6260 c          1 WW8       0.625300
     11 O11          0.1370    -1.1460    -1.7920 o          1 WW8      -0.568100
     12 N12          0.7690    -1.6750     0.3080 n          1 WW8      -0.410800
     13 C13          2.1850    -1.7010    -0.0300 c5         1 WW8       0.093000
     14 C14          2.9020    -1.8540     1.3190 c5         1 WW8       0.169500
     15 N15          4.1660    -1.1440     1.3400 n3         1 WW8      -0.711600
     16 C16          5.0970    -1.6780     0.3590 c3         1 WW8       0.163800
     17 C17          6.2910    -0.7680     0.0930 c3         1 WW8      -0.078400
     18 C18          7.1300    -1.3110    -1.0560 c3         1 WW8       0.164800
     19 N19          8.2570    -0.4680    -1.4150 n3         1 WW8      -0.707600
     20 C20          9.2690    -0.4260    -0.3810 c3         1 WW8       0.148600
     21 C21          8.8350    -0.9020    -2.6690 c3         1 WW8       0.148600
     22 C22          4.7420    -1.1220     2.6680 c3         1 WW8       0.151100
     23 C23          1.8810    -1.3060     2.3160 c5         1 WW8      -0.100400
     24 C24          0.5470    -1.7520     1.7480 c5         1 WW8       0.104000
     25 C25         -2.4820    -0.3770    -0.3890 cd         1 WW8      -0.016400
     26 C26         -2.2570     0.9490    -0.9470 cd         1 WW8      -0.132800
     27 C27         -2.6080     1.4990    -2.1570 cc         1 WW8       0.329500
     28 C28         -3.2450     0.8450    -3.3010 ca         1 WW8      -0.108500
     29 C29         -4.1020     1.5710    -4.1310 ca         1 WW8      -0.086500
     30 C30         -4.7280     0.9630    -5.2080 ca         1 WW8      -0.120500
     31 C31         -4.5080    -0.3820    -5.4790 ca         1 WW8      -0.109000
     32 C32         -3.6470    -1.1090    -4.6680 ca         1 WW8      -0.120500
     33 C33         -3.0150    -0.5010    -3.5920 ca         1 WW8      -0.086500
     34 N34         -2.3110     2.8340    -2.1660 nc         1 WW8      -0.669000
     35 C35         -1.7880     3.0910    -0.9980 cd         1 WW8       0.403400
     36 N36         -1.7350     1.9920    -0.2150 na         1 WW8      -0.165500
     37 C37         -1.2360     1.9490     1.1400 c3         1 WW8       0.119900
     38 C38          0.2630     2.0900     1.2460 ca         1 WW8      -0.120300
     39 C39          1.1220     1.7890     0.1960 ca         1 WW8      -0.096000
     40 C40          2.4980     1.8950     0.3480 ca         1 WW8      -0.101000
     41 C41          3.0170     2.3100     1.5610 ca         1 WW8       0.133000
     42 CL42         4.7310     2.4600     1.7550 cl         1 WW8      -0.195000
     43 C43          2.1810     2.6180     2.6230 ca         1 WW8      -0.101000
     44 C44          0.8090     2.5070     2.4570 ca         1 WW8      -0.096000
     45 H1          -4.3070    -3.9570     1.5170 ha         1 WW8       0.131000
     46 H4          -7.0270    -0.6950     0.8200 ha         1 WW8       0.132000
     47 H5          -5.2210     0.6690    -0.1640 ha         1 WW8       0.133000
     48 HN8         -1.7300    -3.3330     0.5950 hn         1 WW8       0.359000
     49 H13          2.3950    -2.5130    -0.7280 h1         1 WW8       0.066200
     50 H13A         2.4820    -0.7610    -0.5010 h1         1 WW8       0.066200
     51 H14          3.0450    -2.9310     1.5280 h1         1 WW8       0.028700
     52 H16          5.4540    -2.6840     0.6460 h1         1 WW8       0.030200
     53 H16A         4.5660    -1.8050    -0.5880 h1         1 WW8       0.030200
     54 H17          5.9270     0.2320    -0.1540 hc         1 WW8       0.056200
     55 H17A         6.9020    -0.6740     0.9920 hc         1 WW8       0.056200
     56 H18          7.4630    -2.3380    -0.8140 h1         1 WW8       0.027700
     57 H18A         6.4890    -1.3990    -1.9380 h1         1 WW8       0.027700
     58 H20          9.6570    -1.4240    -0.1170 h1         1 WW8       0.030200
     59 H20A        10.1130     0.1780    -0.7160 h1         1 WW8       0.030200
     60 H20B         8.8880     0.0330     0.5310 h1         1 WW8       0.030200
     61 H21          8.0850    -0.8690    -3.4610 h1         1 WW8       0.030200
     62 H21A         9.6520    -0.2380    -2.9560 h1         1 WW8       0.030200
     63 H21B         9.2380    -1.9270    -2.6330 h1         1 WW8       0.030200
     64 H22          4.9430    -2.1280     3.0700 h1         1 WW8       0.033367
     65 H22A         5.6810    -0.5730     2.6630 h1         1 WW8       0.033367
     66 H22B         4.0860    -0.6020     3.3650 h1         1 WW8       0.033367
     67 H23          2.0260    -1.6710     3.3320 hc         1 WW8       0.067200
     68 H23A         1.9390    -0.2160     2.3270 hc         1 WW8       0.067200
     69 H24         -0.2730    -1.1060     2.0620 h1         1 WW8       0.048700
     70 H24A         0.3090    -2.7740     2.0540 h1         1 WW8       0.048700
     71 H29         -4.2850     2.6170    -3.9220 ha         1 WW8       0.125500
     72 H30         -5.3940     1.5420    -5.8370 ha         1 WW8       0.108000
     73 H31         -4.9990    -0.8570    -6.3190 ha         1 WW8       0.107000
     74 H32         -3.4540    -2.1530    -4.8800 ha         1 WW8       0.108000
     75 H33         -2.3170    -1.0690    -2.9910 ha         1 WW8       0.125500
     76 H35         -1.4260     4.0510    -0.6620 h5         1 WW8       0.058100
     77 H37         -1.7240     2.7360     1.7160 h1         1 WW8       0.069200
     78 H37A        -1.5550     1.0030     1.5800 h1         1 WW8       0.069200
     79 H39          0.7350     1.4600    -0.7600 ha         1 WW8       0.128000
     80 H40          3.1540     1.6540    -0.4770 ha         1 WW8       0.134000
     81 H43          2.5880     2.9470     3.5690 ha         1 WW8       0.134000
     82 H44          0.1600     2.7530     3.2880 ha         1 WW8       0.128000
@<TRIPOS>BOND
     1     1     2 ar  
     2     1     7 ar  
     3     1    45 1   
     4     2     3 1   
     5     2     4 ar  
     6     4     5 ar  
     7     4    46 1   
     8     5     6 ar  
     9     5    47 1   
    10     6     7 ar  
    11     6    25 1   
    12     7     8 1   
    13     8     9 1   
    14     8    48 1   
    15     9    10 1   
    16     9    25 2   
    17    10    11 2   
    18    10    12 1   
    19    12    13 1   
    20    12    24 1   
    21    13    14 1   
    22    13    49 1   
    23    13    50 1   
    24    14    15 1   
    25    14    23 1   
    26    14    51 1   
    27    15    16 1   
    28    15    22 1   
    29    16    17 1   
    30    16    52 1   
    31    16    53 1   
    32    17    18 1   
    33    17    54 1   
    34    17    55 1   
    35    18    19 1   
    36    18    56 1   
    37    18    57 1   
    38    19    20 1   
    39    19    21 1   
    40    20    58 1   
    41    20    59 1   
    42    20    60 1   
    43    21    61 1   
    44    21    62 1   
    45    21    63 1   
    46    22    64 1   
    47    22    65 1   
    48    22    66 1   
    49    23    24 1   
    50    23    67 1   
    51    23    68 1   
    52    24    69 1   
    53    24    70 1   
    54    25    26 1   
    55    26    27 2   
    56    26    36 1   
    57    27    28 1   
    58    27    34 1   
    59    28    29 ar  
    60    28    33 ar  
    61    29    30 ar  
    62    29    71 1   
    63    30    31 ar  
    64    30    72 1   
    65    31    32 ar  
    66    31    73 1   
    67    32    33 ar  
    68    32    74 1   
    69    33    75 1   
    70    34    35 2   
    71    35    36 1   
    72    35    76 1   
    73    36    37 1   
    74    37    38 1   
    75    37    77 1   
    76    37    78 1   
    77    38    39 ar  
    78    38    44 ar  
    79    39    40 ar  
    80    39    79 1   
    81    40    41 ar  
    82    40    80 1   
    83    41    42 1   
    84    41    43 ar  
    85    43    44 ar  
    86    43    81 1   
    87    44    82 1   
@<TRIPOS>SUBSTRUCTURE
     1 WW8         1 TEMP              0 ****  ****    0 ROOT
