@<TRIPOS>MOLECULE
WW8
   82    87     1     0     0
SMALL
No Charge or Current Charge


@<TRIPOS>ATOM
      1 C1          -4.5100    -2.7440     1.1160 ca         1 WW8      -0.126000
      2 C2          -5.8620    -2.4330     0.8680 ca         1 WW8       0.147000
      3 Cl3         -7.1290    -3.4480     1.5440 cl         1 WW8      -0.205000
      4 C4          -6.2070    -1.2960     0.1030 ca         1 WW8      -0.134000
      5 C5          -5.2000    -0.4680    -0.4380 ca         1 WW8      -0.036000
      6 C6          -3.8610    -0.8320    -0.2150 ca         1 WW8      -0.094800
      7 C7          -3.5340    -1.9080     0.5600 ca         1 WW8      -0.039200
      8 N8          -2.1610    -1.9810     0.6980 na         1 WW8      -0.206700
      9 C9          -1.5270    -0.9420    -0.0280 cc         1 WW8      -0.110300
     10 C10         -0.0800    -0.7760    -0.3880 c          1 WW8       0.625300
     11 O11          0.2950    -0.2390    -1.4230 o          1 WW8      -0.568100
     12 N12          0.8720    -1.3210     0.5030 n          1 WW8      -0.410800
     13 C13          2.3220    -1.2680     0.2150 c5         1 WW8       0.093000
     14 C14          2.9220    -2.1080     1.3850 c5         1 WW8       0.169500
     15 N15          4.3290    -1.6540     1.6780 n3         1 WW8      -0.711600
     16 C16          5.2560    -1.7620     0.5120 c3         1 WW8       0.163800
     17 C17          6.6520    -1.1260     0.7060 c3         1 WW8      -0.078400
     18 C18          7.4390    -1.0240    -0.6200 c3         1 WW8       0.164800
     19 N19          8.7400    -0.3130    -0.5270 n3         1 WW8      -0.707600
     20 C20          9.7210    -0.9660     0.3730 c3         1 WW8       0.148600
     21 C21          9.3170    -0.0370    -1.8610 c3         1 WW8       0.148600
     22 C22          4.9110    -2.2600     2.9080 c3         1 WW8       0.151100
     23 C23          1.9930    -1.6660     2.5490 c5         1 WW8      -0.100400
     24 C24          0.5930    -1.7540     1.8890 c5         1 WW8       0.104000
     25 C25         -2.5970    -0.2080    -0.5610 cd         1 WW8      -0.016400
     26 C26         -2.3910     1.0420    -1.2670 cd         1 WW8      -0.132800
     27 C27         -3.1170     1.5410    -2.3220 cc         1 WW8       0.329500
     28 C28         -4.0740     0.7620    -3.1210 ca         1 WW8      -0.108500
     29 C29         -5.2090     1.3930    -3.6730 ca         1 WW8      -0.086500
     30 C30         -6.1140     0.6700    -4.4700 ca         1 WW8      -0.120500
     31 C31         -5.8820    -0.6870    -4.7450 ca         1 WW8      -0.109000
     32 C32         -4.7350    -1.3160    -4.2340 ca         1 WW8      -0.120500
     33 C33         -3.8300    -0.5940    -3.4380 ca         1 WW8      -0.086500
     34 N34         -2.7690     2.8260    -2.6200 nc         1 WW8      -0.669000
     35 C35         -1.8290     3.1470    -1.7370 cd         1 WW8       0.403400
     36 N36         -1.5600     2.0910    -0.8690 na         1 WW8      -0.165500
     37 C37         -0.8630     2.2450     0.4280 c3         1 WW8       0.119900
     38 C38          0.6680     2.3180     0.4010 ca         1 WW8      -0.120300
     39 C39          1.3950     2.6180    -0.7730 ca         1 WW8      -0.096000
     40 C40          2.8000     2.6780    -0.7440 ca         1 WW8      -0.101000
     41 C41          3.4890     2.4440     0.4550 ca         1 WW8       0.133000
     42 Cl42         5.2460     2.5220     0.4860 cl         1 WW8      -0.195000
     43 C43          2.7780     2.1490     1.6280 ca         1 WW8      -0.101000
     44 C44          1.3740     2.0870     1.6010 ca         1 WW8      -0.096000
     45 H1          -4.2380    -3.6020     1.7270 ha         1 WW8       0.131000
     46 H4          -7.2530    -1.0510    -0.0580 ha         1 WW8       0.132000
     47 H5          -5.4670     0.4290    -0.9860 ha         1 WW8       0.133000
     48 HN8         -1.6790    -2.7420     1.1630 hn         1 WW8       0.359000
     49 H13          2.5620    -1.7030    -0.7640 h1         1 WW8       0.066200
     50 H13A         2.6790    -0.2310     0.2320 h1         1 WW8       0.066200
     51 H14          2.8520    -3.1880     1.1910 h1         1 WW8       0.028700
     52 H16          5.3890    -2.8180     0.2390 h1         1 WW8       0.030200
     53 H16A         4.8100    -1.2660    -0.3600 h1         1 WW8       0.030200
     54 H17          6.5350    -0.1230     1.1310 hc         1 WW8       0.056200
     55 H17A         7.2250    -1.7250     1.4200 hc         1 WW8       0.056200
     56 H18          7.5950    -2.0380    -1.0130 h1         1 WW8       0.027700
     57 H18A         6.7980    -0.4980    -1.3410 h1         1 WW8       0.027700
     58 H20          9.9410    -1.9880     0.0370 h1         1 WW8       0.030200
     59 H20A        10.6630    -0.4020     0.3920 h1         1 WW8       0.030200
     60 H20B         9.3470    -1.0120     1.4040 h1         1 WW8       0.030200
     61 H21          8.6080     0.5250    -2.4840 h1         1 WW8       0.030200
     62 H21A        10.2340     0.5610    -1.7730 h1         1 WW8       0.030200
     63 H21B         9.5660    -0.9720    -2.3820 h1         1 WW8       0.030200
     64 H22          5.0650    -3.3390     2.7740 h1         1 WW8       0.033367
     65 H22A         5.8740    -1.8030     3.1640 h1         1 WW8       0.033367
     66 H22B         4.2610    -2.1140     3.7790 h1         1 WW8       0.033367
     67 H23          2.0620    -2.3130     3.4290 hc         1 WW8       0.067200
     68 H23A         2.2100    -0.6400     2.8700 hc         1 WW8       0.067200
     69 H24         -0.1330    -1.1030     2.3960 h1         1 WW8       0.048700
     70 H24A         0.2210    -2.7870     1.9050 h1         1 WW8       0.048700
     71 H29         -5.3970     2.4460    -3.4720 ha         1 WW8       0.125500
     72 H30         -6.9930     1.1640    -4.8770 ha         1 WW8       0.108000
     73 H31         -6.5810    -1.2460    -5.3620 ha         1 WW8       0.107000
     74 H32         -4.5430    -2.3620    -4.4610 ha         1 WW8       0.108000
     75 H33         -2.9360    -1.0920    -3.0710 ha         1 WW8       0.125500
     76 H35         -1.3470     4.1120    -1.6310 h5         1 WW8       0.058100
     77 H37         -1.2340     3.1680     0.8930 h1         1 WW8       0.069200
     78 H37A        -1.1680     1.4280     1.0930 h1         1 WW8       0.069200
     79 H39          0.8870     2.7960    -1.7170 ha         1 WW8       0.128000
     80 H40          3.3540     2.9040    -1.6510 ha         1 WW8       0.134000
     81 H43          3.3150     1.9640     2.5550 ha         1 WW8       0.134000
     82 H44          0.8330     1.8560     2.5160 ha         1 WW8       0.128000
@<TRIPOS>BOND
     1     1     2 ar  
     2     1     7 ar  
     3     1    45 1   
     4     2     3 1   
     5     2     4 ar  
     6     4     5 ar  
     7     4    46 1   
     8     5     6 ar  
     9     5    47 1   
    10     6     7 ar  
    11     6    25 1   
    12     7     8 1   
    13     8     9 1   
    14     8    48 1   
    15     9    10 1   
    16     9    25 2   
    17    10    11 2   
    18    10    12 1   
    19    12    13 1   
    20    12    24 1   
    21    13    14 1   
    22    13    49 1   
    23    13    50 1   
    24    14    15 1   
    25    14    23 1   
    26    14    51 1   
    27    15    16 1   
    28    15    22 1   
    29    16    17 1   
    30    16    52 1   
    31    16    53 1   
    32    17    18 1   
    33    17    54 1   
    34    17    55 1   
    35    18    19 1   
    36    18    56 1   
    37    18    57 1   
    38    19    20 1   
    39    19    21 1   
    40    20    58 1   
    41    20    59 1   
    42    20    60 1   
    43    21    61 1   
    44    21    62 1   
    45    21    63 1   
    46    22    64 1   
    47    22    65 1   
    48    22    66 1   
    49    23    24 1   
    50    23    67 1   
    51    23    68 1   
    52    24    69 1   
    53    24    70 1   
    54    25    26 1   
    55    26    27 2   
    56    26    36 1   
    57    27    28 1   
    58    27    34 1   
    59    28    29 ar  
    60    28    33 ar  
    61    29    30 ar  
    62    29    71 1   
    63    30    31 ar  
    64    30    72 1   
    65    31    32 ar  
    66    31    73 1   
    67    32    33 ar  
    68    32    74 1   
    69    33    75 1   
    70    34    35 2   
    71    35    36 1   
    72    35    76 1   
    73    36    37 1   
    74    37    38 1   
    75    37    77 1   
    76    37    78 1   
    77    38    39 ar  
    78    38    44 ar  
    79    39    40 ar  
    80    39    79 1   
    81    40    41 ar  
    82    40    80 1   
    83    41    42 1   
    84    41    43 ar  
    85    43    44 ar  
    86    43    81 1   
    87    44    82 1   
@<TRIPOS>SUBSTRUCTURE
     1 WW8         1 TEMP              0 ****  ****    0 ROOT
