@<TRIPOS>MOLECULE
WW9
   46    47     1     0     0
SMALL
abcg2


@<TRIPOS>ATOM
      1 C1           4.4090    -1.2200     3.6940 ca         1 WW9      -0.264500
      2 C2           3.9070    -0.1600     4.4070 ca         1 WW9       0.004000
      3 C4           3.8360     1.1900     2.4190 ca         1 WW9      -0.034000
      4 C5           4.5850     0.2210     0.2540 ca         1 WW9       0.140000
      5 C6           5.0870    -0.8200    -0.4790 ca         1 WW9      -0.105000
      6 C7           5.3900    -2.0330     0.1650 ca         1 WW9      -0.081000
      7 C9           4.6620    -1.1290     2.2900 ca         1 WW9       0.056000
      8 C10          4.3530     0.1180     1.6520 ca         1 WW9      -0.055000
      9 C13          1.8110    -5.8920     2.7780 c3         1 WW9      -0.074400
     10 C14          1.4520    -6.7850     3.9750 c3         1 WW9      -0.077400
     11 C16          2.1720    -7.9200     6.1380 c3         1 WW9      -0.079400
     12 C17          3.2710    -8.0920     7.1770 c3         1 WW9       0.149800
     13 CL1          4.2220     1.7180    -0.5790 cl         1 WW9      -0.209000
     14 C8           5.1860    -2.1880     1.5120 ca         1 WW9      -0.104000
     15 C3           3.6220     1.0570     3.7640 ca         1 WW9      -0.136000
     16 S1           4.7250    -2.7190     4.6030 sy         1 WW9       1.176600
     17 O1           4.3410    -2.4770     5.9780 o          1 WW9      -0.554500
     18 O2           6.0750    -3.1820     4.3610 o          1 WW9      -0.554500
     19 N1           3.7370    -3.7860     3.8660 n7         1 WW9      -0.918300
     20 C11          2.2850    -3.6920     4.0760 c3         1 WW9       0.221800
     21 C12          1.5310    -4.3950     2.9540 c3         1 WW9      -0.077400
     22 C15          2.5600    -6.9590     5.0170 c3         1 WW9      -0.077400
     23 N2           2.8540    -9.0180     8.2410 n8         1 WW9      -1.002200
     24 H21          3.7230    -0.2690     5.4650 ha         1 WW9       0.145000
     25 H4           3.6080     2.1230     1.9260 ha         1 WW9       0.130000
     26 H6           5.2490    -0.7090    -1.5420 ha         1 WW9       0.133000
     27 H7           5.7890    -2.8520    -0.4180 ha         1 WW9       0.124000
     28 H13          1.2340    -6.2190     1.9090 hc         1 WW9       0.042200
     29 H8O          2.8610    -6.0490     2.5070 hc         1 WW9       0.042200
     30 H14          0.5510    -6.3950     4.4620 hc         1 WW9       0.042200
     31 H8N          1.1870    -7.7790     3.6020 hc         1 WW9       0.042200
     32 H16          1.2670    -7.5500     6.6340 hc         1 WW9       0.046700
     33 H8Q          1.9210    -8.8990     5.7170 hc         1 WW9       0.046700
     34 H17          4.1620    -8.5080     6.6980 h1         1 WW9       0.029200
     35 H8R          3.5530    -7.1020     7.5640 h1         1 WW9       0.029200
     36 H8           5.4310    -3.1270     1.9790 ha         1 WW9       0.134000
     37 H3           3.2260     1.8830     4.3380 ha         1 WW9       0.124000
     38 H18          4.1360    -4.7180     3.8840 hn         1 WW9       0.494000
     39 H8L          2.0230    -2.6340     4.0710 h1         1 WW9       0.048700
     40 H11          2.0070    -4.0900     5.0540 h1         1 WW9       0.048700
     41 H8M          1.7560    -3.8790     2.0160 hc         1 WW9       0.050200
     42 H12          0.4640    -4.2560     3.1470 hc         1 WW9       0.050200
     43 H15          3.4610    -7.3310     4.5160 hc         1 WW9       0.033200
     44 H8P          2.8290    -5.9970     5.4590 hc         1 WW9       0.033200
     45 H22          3.6050    -9.1250     8.9160 hn         1 WW9       0.393500
     46 H23          2.0760    -8.6120     8.7530 hn         1 WW9       0.393500
@<TRIPOS>BOND
     1     1     2 ar  
     2     1     7 ar  
     3     1    16 1   
     4     2    15 ar  
     5     2    24 1   
     6     3     8 ar  
     7     3    15 ar  
     8     3    25 1   
     9     4     5 ar  
    10     4     8 ar  
    11     4    13 1   
    12     5     6 ar  
    13     5    26 1   
    14     6    14 ar  
    15     6    27 1   
    16     7     8 ar  
    17     7    14 ar  
    18     9    10 1   
    19     9    21 1   
    20     9    28 1   
    21     9    29 1   
    22    10    22 1   
    23    10    30 1   
    24    10    31 1   
    25    11    12 1   
    26    11    22 1   
    27    11    32 1   
    28    11    33 1   
    29    12    23 1   
    30    12    34 1   
    31    12    35 1   
    32    14    36 1   
    33    15    37 1   
    34    16    17 2   
    35    16    18 2   
    36    16    19 1   
    37    19    20 1   
    38    19    38 1   
    39    20    21 1   
    40    20    39 1   
    41    20    40 1   
    42    21    41 1   
    43    21    42 1   
    44    22    43 1   
    45    22    44 1   
    46    23    45 1   
    47    23    46 1   
@<TRIPOS>SUBSTRUCTURE
     1 WW9         1 TEMP              0 ****  ****    0 ROOT
