@<TRIPOS>MOLECULE
WW9
   46    47     1     0     0
SMALL
No Charge or Current Charge


@<TRIPOS>ATOM
      1 C1           4.7230    -1.9000     3.5220 ca         1 WW9      -0.264500
      2 C2           4.3100    -1.2150     4.6850 ca         1 WW9       0.004000
      3 C4           3.8460     0.7820     3.3860 ca         1 WW9      -0.034000
      4 C5           4.2050     0.8000     0.9560 ca         1 WW9       0.140000
      5 C6           4.5900     0.1430    -0.2200 ca         1 WW9      -0.105000
      6 C7           5.0120    -1.1900    -0.1730 ca         1 WW9      -0.081000
      7 C9           4.6860    -1.2300     2.2610 ca         1 WW9       0.056000
      8 C10          4.2450     0.1230     2.2020 ca         1 WW9      -0.055000
      9 C13          1.9220    -6.5840     2.6190 c3         1 WW9      -0.074400
     10 C14          1.3980    -6.9120     4.0420 c3         1 WW9      -0.077400
     11 C16          1.8940    -7.2230     6.5540 c3         1 WW9      -0.079400
     12 C17          2.9440    -7.1150     7.6780 c3         1 WW9       0.149800
     13 Cl1          3.6750     2.4800     0.8140 cl         1 WW9      -0.209000
     14 C8           5.0580    -1.8700     1.0520 ca         1 WW9      -0.104000
     15 C3           3.8760     0.1130     4.6140 ca         1 WW9      -0.136000
     16 S1           5.2860    -3.6100     3.7360 sy         1 WW9       1.176600
     17 O1           5.0920    -4.0440     5.1200 o          1 WW9      -0.554500
     18 O2           6.5590    -3.7950     3.0360 o          1 WW9      -0.554500
     19 N1           4.1730    -4.4740     2.8480 n7         1 WW9      -0.918300
     20 C11          2.7560    -4.0980     2.9700 c3         1 WW9       0.221800
     21 C12          1.8650    -5.0900     2.1930 c3         1 WW9      -0.077400
     22 C15          2.4510    -6.8110     5.1730 c3         1 WW9      -0.077400
     23 N2           2.3860    -7.5200     8.9820 n8         1 WW9      -1.002200
     24 H21          4.3260    -1.7040     5.6580 ha         1 WW9       0.145000
     25 H4           3.5040     1.8130     3.3720 ha         1 WW9       0.130000
     26 H6           4.5540     0.6690    -1.1710 ha         1 WW9       0.133000
     27 H7           5.3020    -1.7000    -1.0900 ha         1 WW9       0.124000
     28 H13          1.3040    -7.1430     1.9060 hc         1 WW9       0.042200
     29 H8O          2.9390    -6.9770     2.4950 hc         1 WW9       0.042200
     30 H14          0.5390    -6.2700     4.2750 hc         1 WW9       0.042200
     31 H8N          1.0170    -7.9410     4.0310 hc         1 WW9       0.042200
     32 H16          1.0340    -6.5870     6.7980 hc         1 WW9       0.046700
     33 H8Q          1.5270    -8.2560     6.5000 hc         1 WW9       0.046700
     34 H17          3.8020    -7.7620     7.4460 h1         1 WW9       0.029200
     35 H8R          3.3020    -6.0780     7.7530 h1         1 WW9       0.029200
     36 H8           5.3790    -2.9050     1.0280 ha         1 WW9       0.134000
     37 H3           3.5630     0.6290     5.5190 ha         1 WW9       0.124000
     38 H18          4.3010    -5.3940     3.2620 hn         1 WW9       0.494000
     39 H8L          2.5860    -3.0980     2.5490 h1         1 WW9       0.048700
     40 H11          2.4340    -4.0610     4.0190 h1         1 WW9       0.048700
     41 H8M          2.1320    -5.0250     1.1310 hc         1 WW9       0.050200
     42 H12          0.8260    -4.7450     2.2630 hc         1 WW9       0.050200
     43 H15          3.3060    -7.4530     4.9270 hc         1 WW9       0.033200
     44 H8P          2.8320    -5.7880     5.2460 hc         1 WW9       0.033200
     45 H22          3.0960    -7.3730     9.7100 hn         1 WW9       0.393500
     46 H23          1.6380    -6.8660     9.2410 hn         1 WW9       0.393500
@<TRIPOS>BOND
     1     1     2 ar  
     2     1     7 ar  
     3     1    16 1   
     4     2    15 ar  
     5     2    24 1   
     6     3     8 ar  
     7     3    15 ar  
     8     3    25 1   
     9     4     5 ar  
    10     4     8 ar  
    11     4    13 1   
    12     5     6 ar  
    13     5    26 1   
    14     6    14 ar  
    15     6    27 1   
    16     7     8 ar  
    17     7    14 ar  
    18     9    10 1   
    19     9    21 1   
    20     9    28 1   
    21     9    29 1   
    22    10    22 1   
    23    10    30 1   
    24    10    31 1   
    25    11    12 1   
    26    11    22 1   
    27    11    32 1   
    28    11    33 1   
    29    12    23 1   
    30    12    34 1   
    31    12    35 1   
    32    14    36 1   
    33    15    37 1   
    34    16    17 2   
    35    16    18 2   
    36    16    19 1   
    37    19    20 1   
    38    19    38 1   
    39    20    21 1   
    40    20    39 1   
    41    20    40 1   
    42    21    41 1   
    43    21    42 1   
    44    22    43 1   
    45    22    44 1   
    46    23    45 1   
    47    23    46 1   
@<TRIPOS>SUBSTRUCTURE
     1 WW9         1 TEMP              0 ****  ****    0 ROOT
