@<TRIPOS>MOLECULE
WWC
   29    31     1     0     0
SMALL
No Charge or Current Charge


@<TRIPOS>ATOM
      1 C17        -54.9620   -30.8130     7.5180 ca         1 WWC      -0.237200
      2 C15        -56.5880   -32.2150     8.0590 cc         1 WWC       0.436700
      3 C13        -56.1350   -30.1210     7.6560 ca         1 WWC       0.251000
      4 C11        -55.0090   -28.1980     7.1320 ca         1 WWC       0.140900
      5 C01        -48.0420   -30.0950     6.7050 c3         1 WWC      -0.061100
      6 C02        -49.1690   -29.3530     5.9870 cx         1 WWC      -0.229000
      7 C03        -48.8170   -28.3870     4.8690 cx         1 WWC      -0.092400
      8 C04        -49.3180   -27.8550     6.1900 cx         1 WWC      -0.092400
      9 C05        -50.4460   -30.1570     5.8250 c          1 WWC       0.634100
     10 C09        -53.7770   -30.1420     7.1740 ca         1 WWC       0.381900
     11 N07        -51.2920   -30.1060     6.9290 ns         1 WWC      -0.344300
     12 N08        -52.5580   -30.8150     7.0260 nu         1 WWC      -0.672100
     13 N10        -53.8080   -28.8070     6.9760 nb         1 WWC      -0.238000
     14 N12        -56.1830   -28.7890     7.4650 nb         1 WWC      -0.137000
     15 N14        -57.1670   -30.9970     7.9990 nd         1 WWC      -0.637700
     16 N16        -55.2320   -32.1330     7.7660 na         1 WWC      -0.300600
     17 O06        -50.6990   -30.8000     4.8120 o          1 WWC      -0.597100
     18 H151       -57.0780   -33.1530     8.2950 h5         1 WWC       0.068800
     19 H111       -55.0350   -27.1220     6.9740 h5         1 WWC       0.052100
     20 H011       -48.3460   -30.3850     7.7180 hc         1 WWC       0.043367
     21 H013       -47.7700   -31.0090     6.1620 hc         1 WWC       0.043367
     22 H012       -47.1400   -29.4770     6.7910 hc         1 WWC       0.043367
     23 H032       -49.4860   -28.3220     4.0140 hc         1 WWC       0.084450
     24 H031       -47.7660   -28.2370     4.6300 hc         1 WWC       0.084450
     25 H041       -48.6020   -27.3490     6.8340 hc         1 WWC       0.084450
     26 H042       -50.3200   -27.4300     6.2110 hc         1 WWC       0.084450
     27 H071       -50.9620   -29.5810     7.7380 hn         1 WWC       0.353500
     28 H081       -52.4930   -31.7760     7.3800 hn         1 WWC       0.494000
     29 H161       -54.5950   -32.9200     7.7340 hn         1 WWC       0.360000
@<TRIPOS>BOND
     1     1     3 ar  
     2     1    10 ar  
     3     1    16 1   
     4     2    15 2   
     5     2    16 1   
     6     2    18 1   
     7     3    14 ar  
     8     3    15 1   
     9     4    13 ar  
    10     4    14 ar  
    11     4    19 1   
    12     5     6 1   
    13     5    20 1   
    14     5    21 1   
    15     5    22 1   
    16     6     7 1   
    17     6     8 1   
    18     6     9 1   
    19     7     8 1   
    20     7    23 1   
    21     7    24 1   
    22     8    25 1   
    23     8    26 1   
    24     9    11 1   
    25     9    17 2   
    26    10    12 1   
    27    10    13 ar  
    28    11    12 1   
    29    11    27 1   
    30    12    28 1   
    31    16    29 1   
@<TRIPOS>SUBSTRUCTURE
     1 WWC         1 TEMP              0 ****  ****    0 ROOT
