@<TRIPOS>MOLECULE
WWC
   29    31     1     0     0
SMALL
abcg2


@<TRIPOS>ATOM
      1 C17        -54.7120   -30.9480     7.4930 ca         1 WWC      -0.237200
      2 C15        -56.5750   -32.0850     7.2880 cc         1 WWC       0.436700
      3 C13        -55.8290   -30.1290     7.7050 ca         1 WWC       0.251000
      4 C11        -54.4880   -28.3790     8.0530 ca         1 WWC       0.140900
      5 C01        -48.6030   -29.1440     7.2610 c3         1 WWC      -0.061100
      6 C02        -49.4710   -29.1570     6.0210 cx         1 WWC      -0.229000
      7 C03        -48.7810   -29.1880     4.6690 cx         1 WWC      -0.092400
      8 C04        -49.4470   -27.9330     5.1230 cx         1 WWC      -0.092400
      9 C05        -50.7860   -29.8680     6.0620 c          1 WWC       0.634100
     10 C09        -53.4370   -30.3740     7.5800 ca         1 WWC       0.381900
     11 N07        -51.0830   -30.4820     7.2450 ns         1 WWC      -0.344300
     12 N08        -52.2910   -31.1160     7.4340 nu         1 WWC      -0.672100
     13 N10        -53.3540   -29.0760     7.8660 nb         1 WWC      -0.238000
     14 N12        -55.7360   -28.8180     7.9910 nb         1 WWC      -0.137000
     15 N14        -56.9840   -30.8640     7.5710 nd         1 WWC      -0.637700
     16 N16        -55.2240   -32.1990     7.2270 na         1 WWC      -0.300600
     17 O06        -51.5520   -29.9240     5.1060 o          1 WWC      -0.597100
     18 H151       -57.2190   -32.9340     7.1160 h5         1 WWC       0.068800
     19 H111       -54.3530   -27.3270     8.2800 h5         1 WWC       0.052100
     20 H011       -49.1060   -28.6600     8.1020 hc         1 WWC       0.043367
     21 H013       -48.3150   -30.1540     7.5620 hc         1 WWC       0.043367
     22 H012       -47.6880   -28.5870     7.0620 hc         1 WWC       0.043367
     23 H032       -49.2620   -29.7590     3.8880 hc         1 WWC       0.084450
     24 H031       -47.7010   -29.2390     4.6910 hc         1 WWC       0.084450
     25 H041       -48.8290   -27.1120     5.4610 hc         1 WWC       0.084450
     26 H042       -50.3770   -27.6560     4.6480 hc         1 WWC       0.084450
     27 H071       -50.5070   -30.3740     8.0620 hn         1 WWC       0.353500
     28 H081       -52.3690   -32.0120     6.9740 hn         1 WWC       0.494000
     29 H161       -54.7140   -33.0470     7.0290 hn         1 WWC       0.360000
@<TRIPOS>BOND
     1     1     3 ar  
     2     1    10 ar  
     3     1    16 1   
     4     2    15 2   
     5     2    16 1   
     6     2    18 1   
     7     3    14 ar  
     8     3    15 1   
     9     4    13 ar  
    10     4    14 ar  
    11     4    19 1   
    12     5     6 1   
    13     5    20 1   
    14     5    21 1   
    15     5    22 1   
    16     6     7 1   
    17     6     8 1   
    18     6     9 1   
    19     7     8 1   
    20     7    23 1   
    21     7    24 1   
    22     8    25 1   
    23     8    26 1   
    24     9    11 1   
    25     9    17 2   
    26    10    12 1   
    27    10    13 ar  
    28    11    12 1   
    29    11    27 1   
    30    12    28 1   
    31    16    29 1   
@<TRIPOS>SUBSTRUCTURE
     1 WWC         1 TEMP              0 ****  ****    0 ROOT
