@<TRIPOS>MOLECULE
WWH
   53    55     1     0     0
SMALL
abcg2


@<TRIPOS>ATOM
      1 C18        -46.9140   -32.1390     0.0280 c3         1 WWH      -0.153400
      2 C16        -42.5770   -30.1780     0.2260 c3         1 WWH      -0.083400
      3 C17        -42.0890   -31.5710    -0.1590 c3         1 WWH      -0.089100
      4 C14        -44.2270   -29.9930     5.6540 ca         1 WWH       0.179900
      5 C12        -46.4360   -29.9380     5.7650 ca         1 WWH       0.129500
      6 C10        -48.5390   -29.6480     5.1790 cc         1 WWH       0.402700
      7 C20        -45.5490   -34.0120    -1.1010 c6         1 WWH      -0.066700
      8 C19        -46.8180   -33.6260    -0.3380 c3         1 WWH      -0.062400
      9 C02        -45.7660   -31.7140     0.9230 c          1 WWH       0.594100
     10 C04        -43.8100   -30.1990     1.1270 c3         1 WWH       0.073700
     11 C05        -44.1380   -28.7940     1.6550 c3         1 WWH       0.213800
     12 C07        -45.3340   -29.2460     3.7640 ca         1 WWH       0.445900
     13 C08        -46.5400   -29.4490     4.4640 ca         1 WWH      -0.088600
     14 C21        -45.4070   -35.5460    -1.1790 c6         1 WWH      -0.070400
     15 C22        -44.4900   -36.0060    -2.3290 c6         1 WWH      -0.072400
     16 C23        -43.4320   -34.9490    -2.6430 c6         1 WWH      -0.074400
     17 C24        -44.0930   -33.6510    -3.1460 c6         1 WWH      -0.072400
     18 C25        -45.4780   -33.4180    -2.5100 c6         1 WWH      -0.070400
     19 N03        -44.9580   -30.7560     0.4260 ns         1 WWH      -0.512900
     20 N09        -47.8680   -29.2750     4.1140 nd         1 WWH      -0.558100
     21 N11        -47.7290   -30.0580     6.2040 na         1 WWH      -0.419300
     22 N13        -45.2970   -30.2280     6.4100 nb         1 WWH      -0.216000
     23 N15        -44.1810   -29.5330     4.3970 nb         1 WWH      -0.288000
     24 O01        -45.5880   -32.2390     2.0250 o          1 WWH      -0.605100
     25 H181       -46.9540   -31.5190    -0.8690 hc         1 WWH       0.057200
     26 H182       -47.8360   -31.9620     0.5860 hc         1 WWH       0.057200
     27 H161       -41.7830   -29.6390     0.7510 hc         1 WWH       0.042200
     28 H162       -42.8050   -29.5960    -0.6730 hc         1 WWH       0.042200
     29 H173       -41.2230   -31.5120    -0.8200 hc         1 WWH       0.038700
     30 H172       -41.8000   -32.1400     0.7280 hc         1 WWH       0.038700
     31 H171       -42.8680   -32.1320    -0.6770 hc         1 WWH       0.038700
     32 H101       -49.6140   -29.6480     5.2750 h5         1 WWH       0.065800
     33 H201       -44.6930   -33.6250    -0.5380 hc         1 WWH       0.053700
     34 H192       -47.6950   -33.8980    -0.9330 hc         1 WWH       0.052200
     35 H191       -46.8690   -34.2110     0.5840 hc         1 WWH       0.052200
     36 H041       -43.6300   -30.8510     1.9800 h1         1 WWH       0.104700
     37 H052       -43.2840   -28.4150     2.2140 h1         1 WWH       0.062700
     38 H051       -44.3240   -28.1190     0.8180 h1         1 WWH       0.062700
     39 H211       -46.3990   -35.9910    -1.3030 hc         1 WWH       0.036950
     40 H212       -45.0210   -35.9100    -0.2220 hc         1 WWH       0.036950
     41 H221       -45.0860   -36.1830    -3.2300 hc         1 WWH       0.037200
     42 H222       -44.0220   -36.9600    -2.0760 hc         1 WWH       0.037200
     43 H231       -42.8530   -34.7450    -1.7370 hc         1 WWH       0.039200
     44 H232       -42.7220   -35.3200    -3.3860 hc         1 WWH       0.039200
     45 H242       -43.4400   -32.8030    -2.9260 hc         1 WWH       0.037200
     46 H241       -44.1980   -33.6890    -4.2330 hc         1 WWH       0.037200
     47 H251       -45.7010   -32.3500    -2.4970 hc         1 WWH       0.036950
     48 H252       -46.2570   -33.8890    -3.1200 hc         1 WWH       0.036950
     49 H031       -45.1780   -30.3780    -0.4830 hn         1 WWH       0.305500
     50 H111       -48.0290   -30.3850     7.1110 hn         1 WWH       0.369000
     51 N06        -45.3140   -28.7680     2.5050 nu         1 WWH      -0.903100
     52 H141       -43.2650   -30.2040     6.1090 h5         1 WWH       0.046100
     53 H061       -46.2100   -28.6900     2.0510 hn         1 WWH       0.504000
@<TRIPOS>BOND
     1     1     8 1   
     2     1     9 1   
     3     1    25 1   
     4     1    26 1   
     5     2     3 1   
     6     2    10 1   
     7     2    27 1   
     8     2    28 1   
     9     3    29 1   
    10     3    30 1   
    11     3    31 1   
    12     4    22 ar  
    13     4    23 ar  
    14     4    52 1   
    15     5    13 ar  
    16     5    21 1   
    17     5    22 ar  
    18     6    20 2   
    19     6    21 1   
    20     6    32 1   
    21     7     8 1   
    22     7    14 1   
    23     7    18 1   
    24     7    33 1   
    25     8    34 1   
    26     8    35 1   
    27     9    19 1   
    28     9    24 2   
    29    10    11 1   
    30    10    19 1   
    31    10    36 1   
    32    11    37 1   
    33    11    38 1   
    34    11    51 1   
    35    12    13 ar  
    36    12    23 ar  
    37    12    51 1   
    38    13    20 1   
    39    14    15 1   
    40    14    39 1   
    41    14    40 1   
    42    15    16 1   
    43    15    41 1   
    44    15    42 1   
    45    16    17 1   
    46    16    43 1   
    47    16    44 1   
    48    17    18 1   
    49    17    45 1   
    50    17    46 1   
    51    18    47 1   
    52    18    48 1   
    53    19    49 1   
    54    21    50 1   
    55    51    53 1   
@<TRIPOS>SUBSTRUCTURE
     1 WWH         1 TEMP              0 ****  ****    0 ROOT
