@<TRIPOS>MOLECULE
WWH
   53    55     1     0     0
SMALL
No Charge or Current Charge


@<TRIPOS>ATOM
      1 C18        -46.7670   -32.3330     0.7280 c3         1 WWH      -0.153400
      2 C16        -42.4220   -30.2920     0.1910 c3         1 WWH      -0.083400
      3 C17        -41.9810   -31.7460    -0.0800 c3         1 WWH      -0.089100
      4 C14        -44.4220   -29.8470     5.6410 ca         1 WWH       0.179900
      5 C12        -46.6740   -30.0490     5.3320 ca         1 WWH       0.129500
      6 C10        -48.6620   -29.9130     4.3200 cc         1 WWH       0.402700
      7 C20        -45.5200   -34.0470    -0.8550 c6         1 WWH      -0.066700
      8 C19        -46.6700   -33.7750     0.1670 c3         1 WWH      -0.062400
      9 C02        -45.4640   -31.8610     1.3840 c          1 WWH       0.594100
     10 C04        -43.5970   -30.1620     1.1920 c3         1 WWH       0.073700
     11 C05        -43.9040   -28.6730     1.5370 c3         1 WWH       0.213800
     12 C07        -45.2800   -29.0890     3.6510 ca         1 WWH       0.445900
     13 C08        -46.5620   -29.4780     4.0920 ca         1 WWH      -0.088600
     14 C21        -45.4560   -35.5620    -1.2270 c6         1 WWH      -0.070400
     15 C22        -44.6570   -35.8550    -2.5300 c6         1 WWH      -0.072400
     16 C23        -43.6520   -34.7290    -2.8610 c6         1 WWH      -0.074400
     17 C24        -44.3760   -33.3700    -3.0690 c6         1 WWH      -0.072400
     18 C25        -45.6140   -33.1810    -2.1430 c6         1 WWH      -0.070400
     19 N03        -44.7960   -30.8670     0.6990 ns         1 WWH      -0.512900
     20 N09        -47.7960   -29.3830     3.4360 nd         1 WWH      -0.558100
     21 N11        -47.9990   -30.3210     5.4750 na         1 WWH      -0.419300
     22 N13        -45.6170   -30.2490     6.1390 nb         1 WWH      -0.216000
     23 N15        -44.1960   -29.2750     4.4330 nb         1 WWH      -0.288000
     24 O01        -45.0640   -32.3140     2.4470 o          1 WWH      -0.605100
     25 H181       -47.0530   -31.6510    -0.0800 hc         1 WWH       0.057200
     26 H182       -47.5550   -32.3220     1.4910 hc         1 WWH       0.057200
     27 H161       -41.5610   -29.7370     0.5820 hc         1 WWH       0.042200
     28 H162       -42.6980   -29.8190    -0.7600 hc         1 WWH       0.042200
     29 H173       -41.1060   -31.7620    -0.7390 hc         1 WWH       0.038700
     30 H172       -41.7160   -32.2530     0.8560 hc         1 WWH       0.038700
     31 H171       -42.7800   -32.3140    -0.5670 hc         1 WWH       0.038700
     32 H101       -49.7320   -30.0250     4.1890 h5         1 WWH       0.065800
     33 H201       -44.5860   -33.7940    -0.3370 hc         1 WWH       0.053700
     34 H192       -47.6340   -34.0280    -0.2910 hc         1 WWH       0.052200
     35 H191       -46.5570   -34.4580     1.0180 hc         1 WWH       0.052200
     36 H041       -43.2740   -30.6390     2.1270 h1         1 WWH       0.104700
     37 H052       -43.0280   -28.2350     2.0350 h1         1 WWH       0.062700
     38 H051       -44.0560   -28.1190     0.6000 h1         1 WWH       0.062700
     39 H211       -46.4710   -35.9690    -1.3410 hc         1 WWH       0.036950
     40 H212       -45.0050   -36.1130    -0.3900 hc         1 WWH       0.036950
     41 H221       -45.3570   -35.9650    -3.3700 hc         1 WWH       0.037200
     42 H222       -44.1340   -36.8170    -2.4400 hc         1 WWH       0.037200
     43 H231       -42.9220   -34.6410    -2.0430 hc         1 WWH       0.039200
     44 H232       -43.0750   -34.9860    -3.7600 hc         1 WWH       0.039200
     45 H242       -43.6590   -32.5550    -2.9040 hc         1 WWH       0.037200
     46 H241       -44.6980   -33.2800    -4.1160 hc         1 WWH       0.037200
     47 H251       -45.7090   -32.1150    -1.8980 hc         1 WWH       0.036950
     48 H252       -46.5260   -33.4510    -2.6920 hc         1 WWH       0.036950
     49 H031       -45.2100   -30.5610    -0.1720 hn         1 WWH       0.305500
     50 H111       -48.4360   -30.7480     6.2800 hn         1 WWH       0.369000
     51 N06        -45.1020   -28.5280     2.3920 nu         1 WWH      -0.903100
     52 H141       -43.5530   -30.0000     6.2780 h5         1 WWH       0.046100
     53 H061       -45.9930   -28.4420     1.9010 hn         1 WWH       0.504000
@<TRIPOS>BOND
     1     1     8 1   
     2     1     9 1   
     3     1    25 1   
     4     1    26 1   
     5     2     3 1   
     6     2    10 1   
     7     2    27 1   
     8     2    28 1   
     9     3    29 1   
    10     3    30 1   
    11     3    31 1   
    12     4    22 ar  
    13     4    23 ar  
    14     4    52 1   
    15     5    13 ar  
    16     5    21 1   
    17     5    22 ar  
    18     6    20 2   
    19     6    21 1   
    20     6    32 1   
    21     7     8 1   
    22     7    14 1   
    23     7    18 1   
    24     7    33 1   
    25     8    34 1   
    26     8    35 1   
    27     9    19 1   
    28     9    24 2   
    29    10    11 1   
    30    10    19 1   
    31    10    36 1   
    32    11    37 1   
    33    11    38 1   
    34    11    51 1   
    35    12    13 ar  
    36    12    23 ar  
    37    12    51 1   
    38    13    20 1   
    39    14    15 1   
    40    14    39 1   
    41    14    40 1   
    42    15    16 1   
    43    15    41 1   
    44    15    42 1   
    45    16    17 1   
    46    16    43 1   
    47    16    44 1   
    48    17    18 1   
    49    17    45 1   
    50    17    46 1   
    51    18    47 1   
    52    18    48 1   
    53    19    49 1   
    54    21    50 1   
    55    51    53 1   
@<TRIPOS>SUBSTRUCTURE
     1 WWH         1 TEMP              0 ****  ****    0 ROOT
