@<TRIPOS>MOLECULE
WWJ
   46    49     1     0     0
SMALL
abcg2


@<TRIPOS>ATOM
      1 C10        -45.6020   -28.8190     4.2300 ca         1 WWJ       0.404900
      2 C13        -46.4110   -29.1430     0.6240 c6         1 WWJ      -0.079400
      3 C15        -44.6520   -27.3740     0.9490 c6         1 WWJ      -0.068700
      4 C17        -43.6240   -25.9730    -0.8670 cc         1 WWJ       0.502300
      5 C24        -46.7990   -29.1790     4.8980 ca         1 WWJ      -0.212800
      6 C02        -48.9380   -28.9990     3.3240 c3         1 WWJ      -0.010200
      7 C03        -48.2110   -29.3020     4.6040 cc         1 WWJ      -0.092400
      8 C04        -48.8070   -29.6580     5.7870 cd         1 WWJ      -0.174100
      9 C06        -46.6440   -29.4370     6.2840 ca         1 WWJ       0.136500
     10 C08        -44.4970   -28.8680     6.2640 ca         1 WWJ       0.164900
     11 C12        -46.0430   -29.6920     1.9930 c6         1 WWJ       0.201800
     12 C14        -45.2190   -28.4250    -0.0050 c6         1 WWJ      -0.074400
     13 C16        -43.3810   -26.7140     0.3950 c3         1 WWJ      -0.111700
     14 C19        -44.2750   -24.7280    -2.4330 cd         1 WWJ       0.564300
     15 C23        -44.3420   -27.9830     2.3180 c6         1 WWJ       0.209800
     16 N05        -47.8610   -29.7610     6.7900 na         1 WWJ      -0.324400
     17 N07        -45.5140   -29.3080     6.9920 nb         1 WWJ      -0.216000
     18 N09        -44.4820   -28.6310     4.9470 nb         1 WWJ      -0.285000
     19 N11        -45.5350   -28.6230     2.8660 nh         1 WWJ      -0.760300
     20 N18        -44.5260   -25.0720    -1.1220 nd         1 WWJ      -0.730000
     21 N21        -43.2730   -25.3730    -2.9630 nc         1 WWJ      -0.376300
     22 O22        -42.8340   -26.2190    -1.9200 os         1 WWJ      -0.116700
     23 H132       -47.2510   -28.4510     0.7290 hc         1 WWJ       0.052700
     24 H131       -46.7420   -29.9650    -0.0150 hc         1 WWJ       0.052700
     25 H151       -45.4030   -26.5930     1.1010 hc         1 WWJ       0.080700
     26 H202       -44.7180   -23.6310    -4.2020 hc         1 WWJ       0.065367
     27 H203       -46.1210   -23.9970    -3.1720 hc         1 WWJ       0.065367
     28 H201       -44.9800   -22.7440    -2.6840 hc         1 WWJ       0.065367
     29 H013       -50.8750   -28.4180     2.5550 hc         1 WWJ       0.034367
     30 H011       -50.9670   -29.4780     3.9590 hc         1 WWJ       0.034367
     31 H012       -50.5300   -27.7810     4.1700 hc         1 WWJ       0.034367
     32 H022       -48.8740   -29.8470     2.6360 hc         1 WWJ       0.049700
     33 H021       -48.4320   -28.1720     2.8210 hc         1 WWJ       0.049700
     34 H041       -49.8470   -29.8240     6.0100 h4         1 WWJ       0.218000
     35 H081       -43.5620   -28.6950     6.7880 h5         1 WWJ       0.047100
     36 H122       -46.8870   -30.1780     2.4670 h1         1 WWJ       0.048200
     37 H121       -45.2550   -30.4510     1.8810 h1         1 WWJ       0.048200
     38 H142       -44.4330   -29.1550    -0.2300 hc         1 WWJ       0.046200
     39 H141       -45.5100   -27.9650    -0.9530 hc         1 WWJ       0.046200
     40 H162       -42.6080   -27.4640     0.2200 hc         1 WWJ       0.077200
     41 H161       -42.9880   -26.0030     1.1280 hc         1 WWJ       0.077200
     42 H232       -43.5240   -28.7120     2.2230 h1         1 WWJ       0.053700
     43 H231       -44.0100   -27.2100     3.0060 h1         1 WWJ       0.053700
     44 H051       -48.0530   -29.9470     7.7610 hn         1 WWJ       0.364000
     45 C20        -45.0670   -23.7150    -3.1750 c3         1 WWJ      -0.125400
     46 C01        -50.4130   -28.6480     3.5170 c3         1 WWJ      -0.090100
@<TRIPOS>BOND
     1     1     5 ar  
     2     1    18 ar  
     3     1    19 1   
     4     2    11 1   
     5     2    12 1   
     6     2    23 1   
     7     2    24 1   
     8     3    12 1   
     9     3    13 1   
    10     3    15 1   
    11     3    25 1   
    12     4    13 1   
    13     4    20 2   
    14     4    22 1   
    15     5     7 1   
    16     5     9 ar  
    17     6     7 1   
    18     6    32 1   
    19     6    33 1   
    20     6    46 1   
    21     7     8 2   
    22     8    16 1   
    23     8    34 1   
    24     9    16 1   
    25     9    17 ar  
    26    10    17 ar  
    27    10    18 ar  
    28    10    35 1   
    29    11    19 1   
    30    11    36 1   
    31    11    37 1   
    32    12    38 1   
    33    12    39 1   
    34    13    40 1   
    35    13    41 1   
    36    14    20 1   
    37    14    21 2   
    38    14    45 1   
    39    15    19 1   
    40    15    42 1   
    41    15    43 1   
    42    16    44 1   
    43    21    22 1   
    44    26    45 1   
    45    27    45 1   
    46    28    45 1   
    47    29    46 1   
    48    30    46 1   
    49    31    46 1   
@<TRIPOS>SUBSTRUCTURE
     1 WWJ         1 TEMP              0 ****  ****    0 ROOT
