@<TRIPOS>MOLECULE
WWJ
   46    49     1     0     0
SMALL
No Charge or Current Charge


@<TRIPOS>ATOM
      1 C10        -45.5390   -29.1890     4.3280 ca         1 WWJ       0.404900
      2 C13        -46.0100   -29.6850     0.6090 c6         1 WWJ      -0.079400
      3 C15        -44.7430   -27.5170     1.0160 c6         1 WWJ      -0.068700
      4 C17        -43.9970   -25.8550    -0.8110 cc         1 WWJ       0.502300
      5 C24        -46.7630   -29.1600     5.0270 ca         1 WWJ      -0.212800
      6 C02        -48.5800   -28.5550     3.1990 c3         1 WWJ      -0.010200
      7 C03        -48.1150   -28.8900     4.5970 cc         1 WWJ      -0.092400
      8 C04        -48.8920   -28.9920     5.7450 cd         1 WWJ      -0.174100
      9 C06        -46.7710   -29.3920     6.3820 ca         1 WWJ       0.136500
     10 C08        -44.4990   -29.6560     6.3260 ca         1 WWJ       0.164900
     11 C12        -45.6460   -30.1440     2.0420 c6         1 WWJ       0.201800
     12 C14        -44.9530   -28.7090     0.0430 c6         1 WWJ      -0.074400
     13 C16        -43.6650   -26.5160     0.4970 c3         1 WWJ      -0.111700
     14 C19        -44.7510   -24.6680    -2.3570 cd         1 WWJ       0.564300
     15 C23        -44.3910   -28.0380     2.4370 c6         1 WWJ       0.209800
     16 N05        -48.0670   -29.3060     6.8510 na         1 WWJ      -0.324400
     17 N07        -45.6360   -29.6470     7.0580 nb         1 WWJ      -0.216000
     18 N09        -44.3920   -29.4400     4.9960 nb         1 WWJ      -0.285000
     19 N11        -45.4290   -28.9790     2.9400 nh         1 WWJ      -0.760300
     20 N18        -44.8210   -24.8470    -0.9960 nd         1 WWJ      -0.730000
     21 N21        -43.9420   -25.5000    -2.9920 nc         1 WWJ      -0.376300
     22 O22        -43.4220   -26.3110    -1.9580 os         1 WWJ      -0.116700
     23 H132       -46.9930   -29.1960     0.6160 hc         1 WWJ       0.052700
     24 H131       -46.1030   -30.5610    -0.0470 hc         1 WWJ       0.052700
     25 H151       -45.6840   -26.9530     1.0890 hc         1 WWJ       0.080700
     26 H202       -44.8580   -22.9230    -3.6020 hc         1 WWJ       0.065367
     27 H203       -46.1980   -24.0640    -3.8230 hc         1 WWJ       0.065367
     28 H201       -46.1440   -23.0270    -2.3870 hc         1 WWJ       0.065367
     29 H013       -50.3030   -27.8490     2.0660 hc         1 WWJ       0.034367
     30 H011       -50.7280   -28.8830     3.4450 hc         1 WWJ       0.034367
     31 H012       -50.2120   -27.1990     3.7170 hc         1 WWJ       0.034367
     32 H022       -48.4590   -29.4370     2.5590 hc         1 WWJ       0.049700
     33 H021       -47.9410   -27.7690     2.7790 hc         1 WWJ       0.049700
     34 H041       -49.9660   -28.8600     5.8550 h4         1 WWJ       0.218000
     35 H081       -43.5740   -29.8600     6.8640 h5         1 WWJ       0.047100
     36 H122       -46.4550   -30.7800     2.4300 h1         1 WWJ       0.048200
     37 H121       -44.7360   -30.7610     2.0040 h1         1 WWJ       0.048200
     38 H142       -44.0030   -29.2420    -0.1100 hc         1 WWJ       0.046200
     39 H141       -45.2780   -28.3510    -0.9440 hc         1 WWJ       0.046200
     40 H162       -42.6990   -27.0280     0.4000 hc         1 WWJ       0.077200
     41 H161       -43.5080   -25.7280     1.2430 hc         1 WWJ       0.077200
     42 H232       -43.4100   -28.5360     2.4110 h1         1 WWJ       0.053700
     43 H231       -44.3050   -27.1780     3.1180 h1         1 WWJ       0.053700
     44 H051       -48.3620   -29.4380     7.8140 hn         1 WWJ       0.364000
     45 C20        -45.5310   -23.6130    -3.0810 c3         1 WWJ      -0.125400
     46 C01        -50.0470   -28.0930     3.1040 c3         1 WWJ      -0.090100
@<TRIPOS>BOND
     1     1     5 ar  
     2     1    18 ar  
     3     1    19 1   
     4     2    11 1   
     5     2    12 1   
     6     2    23 1   
     7     2    24 1   
     8     3    12 1   
     9     3    13 1   
    10     3    15 1   
    11     3    25 1   
    12     4    13 1   
    13     4    20 2   
    14     4    22 1   
    15     5     7 1   
    16     5     9 ar  
    17     6     7 1   
    18     6    32 1   
    19     6    33 1   
    20     6    46 1   
    21     7     8 2   
    22     8    16 1   
    23     8    34 1   
    24     9    16 1   
    25     9    17 ar  
    26    10    17 ar  
    27    10    18 ar  
    28    10    35 1   
    29    11    19 1   
    30    11    36 1   
    31    11    37 1   
    32    12    38 1   
    33    12    39 1   
    34    13    40 1   
    35    13    41 1   
    36    14    20 1   
    37    14    21 2   
    38    14    45 1   
    39    15    19 1   
    40    15    42 1   
    41    15    43 1   
    42    16    44 1   
    43    21    22 1   
    44    26    45 1   
    45    27    45 1   
    46    28    45 1   
    47    29    46 1   
    48    30    46 1   
    49    31    46 1   
@<TRIPOS>SUBSTRUCTURE
     1 WWJ         1 TEMP              0 ****  ****    0 ROOT
