@<TRIPOS>MOLECULE
WWL
   27    28     1     0     0
SMALL
bcc


@<TRIPOS>ATOM
      1 O12         -1.7400    -1.6940    -1.6750 o          1 WWL      -0.593300
      2 S10         -1.8280    -1.3980    -0.2510 sy         1 WWL       1.204600
      3 O11         -2.2650    -2.4090     0.6990 o          1 WWL      -0.593300
      4 C7          -0.2190    -0.8820     0.2320 cc         1 WWL      -0.270600
      5 S8           0.8790    -0.3310    -0.9560 ss         1 WWL       0.191200
      6 C5           1.6170    -0.3810     1.5150 cd         1 WWL      -0.027000
      7 C6           0.2900    -0.8620     1.4990 cd         1 WWL      -0.044000
      8 C9           2.0480    -0.0630     0.2610 cc         1 WWL      -0.281600
      9 S2           3.6230     0.5710    -0.1890 sy         1 WWL       1.316200
     10 O3           4.0500     1.5410     0.8010 o          1 WWL      -0.611800
     11 N4           4.5750    -0.7500     0.0140 n8         1 WWL      -0.903700
     12 O1           3.4830     0.9750    -1.5790 o          1 WWL      -0.611800
     13 C13         -2.8250     0.0470    -0.0350 ca         1 WWL      -0.271500
     14 C18         -3.4820     0.2400     1.1740 ca         1 WWL      -0.031500
     15 C17         -4.2580     1.3780     1.3350 ca         1 WWL      -0.145000
     16 C16         -4.3700     2.2980     0.3020 ca         1 WWL      -0.070000
     17 C15         -3.7080     2.0880    -0.9020 ca         1 WWL      -0.145000
     18 C14         -2.9280     0.9560    -1.0790 ca         1 WWL      -0.031500
     19 H1           2.2190    -0.2860     2.4070 ha         1 WWL       0.171000
     20 H2          -0.2520    -1.1740     2.3800 ha         1 WWL       0.170000
     21 H3           4.4850    -1.4270    -0.7370 hn         1 WWL       0.426300
     22 H4           5.5480    -0.4990     0.1620 hn         1 WWL       0.426300
     23 H5          -3.3980    -0.4780     1.9780 ha         1 WWL       0.155000
     24 H6          -4.7790     1.5400     2.2690 ha         1 WWL       0.139500
     25 H7          -4.9780     3.1830     0.4330 ha         1 WWL       0.137000
     26 H8          -3.8020     2.8040    -1.7070 ha         1 WWL       0.139500
     27 H9          -2.4190     0.7910    -2.0200 ha         1 WWL       0.155000
@<TRIPOS>BOND
     1     1     2 2   
     2     2     3 2   
     3     2     4 1   
     4     2    13 1   
     5     4     5 1   
     6     4     7 2   
     7     5     8 1   
     8     6     7 1   
     9     6     8 2   
    10     6    19 1   
    11     7    20 1   
    12     8     9 1   
    13     9    10 2   
    14     9    11 1   
    15     9    12 2   
    16    11    21 1   
    17    11    22 1   
    18    13    14 ar  
    19    13    18 ar  
    20    14    15 ar  
    21    14    23 1   
    22    15    16 ar  
    23    15    24 1   
    24    16    17 ar  
    25    16    25 1   
    26    17    18 ar  
    27    17    26 1   
    28    18    27 1   
@<TRIPOS>SUBSTRUCTURE
     1 WWL         1 TEMP              0 ****  ****    0 ROOT
