@<TRIPOS>MOLECULE
WWL
   27    28     1     0     0
SMALL
No Charge or Current Charge


@<TRIPOS>ATOM
      1 O12         -1.8460    -1.8990    -1.5860 o          1 WWL      -0.522500
      2 S10         -1.9060    -1.5130    -0.1710 sy         1 WWL       1.063000
      3 O11         -2.3800    -2.4440     0.8630 o          1 WWL      -0.522500
      4 C7          -0.2710    -1.0160     0.3010 cc         1 WWL      -0.415500
      5 S8           0.8070    -0.3000    -0.8770 ss         1 WWL       0.481000
      6 C5           1.6280    -0.5820     1.5740 cd         1 WWL      -0.009000
      7 C6           0.3030    -1.0930     1.5480 cd         1 WWL      -0.026000
      8 C9           2.0420    -0.1200     0.3470 cc         1 WWL      -0.426500
      9 S2           3.5930     0.5970    -0.0590 sy         1 WWL       1.174600
     10 O3           4.2360     1.1340     1.1370 o          1 WWL      -0.541000
     11 N4           4.4780    -0.7160    -0.4260 n8         1 WWL      -1.014100
     12 O1           3.4990     1.3380    -1.3140 o          1 WWL      -0.541000
     13 C13         -2.8600     0.0120    -0.0390 ca         1 WWL      -0.271500
     14 C18         -3.3740     0.4130     1.2130 ca         1 WWL      -0.013500
     15 C17         -4.1070     1.6080     1.3210 ca         1 WWL      -0.127000
     16 C16         -4.3280     2.4070     0.1870 ca         1 WWL      -0.052000
     17 C15         -3.8130     2.0120    -1.0600 ca         1 WWL      -0.127000
     18 C14         -3.0790     0.8180    -1.1760 ca         1 WWL      -0.013500
     19 H1           2.2420    -0.5590     2.4700 ha         1 WWL       0.153000
     20 H2          -0.1970    -1.4980     2.4240 ha         1 WWL       0.152000
     21 H3           4.9930    -0.3700    -1.2310 hn         1 WWL       0.481500
     22 H4           5.1780    -0.6640     0.3100 hn         1 WWL       0.481500
     23 H5          -3.2060    -0.1940     2.1010 ha         1 WWL       0.137000
     24 H6          -4.5020     1.9150     2.2870 ha         1 WWL       0.121500
     25 H7          -4.8950     3.3310     0.2730 ha         1 WWL       0.119000
     26 H8          -3.9830     2.6310    -1.9370 ha         1 WWL       0.121500
     27 H9          -2.6850     0.5280    -2.1490 ha         1 WWL       0.137000
@<TRIPOS>BOND
     1     1     2 2   
     2     2     3 2   
     3     2     4 1   
     4     2    13 1   
     5     4     5 1   
     6     4     7 2   
     7     5     8 1   
     8     6     7 1   
     9     6     8 2   
    10     6    19 1   
    11     7    20 1   
    12     8     9 1   
    13     9    10 2   
    14     9    11 1   
    15     9    12 2   
    16    11    21 1   
    17    11    22 1   
    18    13    14 ar  
    19    13    18 ar  
    20    14    15 ar  
    21    14    23 1   
    22    15    16 ar  
    23    15    24 1   
    24    16    17 ar  
    25    16    25 1   
    26    17    18 ar  
    27    17    26 1   
    28    18    27 1   
@<TRIPOS>SUBSTRUCTURE
     1 WWL         1 TEMP              0 ****  ****    0 ROOT
