@<TRIPOS>MOLECULE
WWN
   50    52     1     0     0
SMALL
abcg2


@<TRIPOS>ATOM
      1 C16        -45.5770   -29.2760     3.8860 ca         1 WWN       0.412900
      2 C17        -46.7270   -29.7730     4.5250 ca         1 WWN      -0.247200
      3 C14        -44.3860   -28.4890     1.8750 c3         1 WWN       0.216800
      4 C12        -42.4880   -29.4240     0.4950 c3         1 WWN      -0.083400
      5 C11        -43.7070   -29.7640     1.3510 c3         1 WWN       0.072700
      6 C19        -48.6660   -30.4970     5.2560 cc         1 WWN       0.430700
      7 C03        -46.2430   -32.3510     0.1450 c3         1 WWN      -0.151400
      8 C04        -45.8300   -33.7700    -0.2660 c6         1 WWN      -0.054700
      9 C05        -44.5360   -33.7690    -1.0870 c6         1 WWN      -0.071900
     10 C06        -44.1400   -35.1790    -1.5290 c6         1 WWN      -0.072900
     11 C07        -45.2720   -35.8650    -2.2960 c6         1 WWN      -0.075400
     12 C08        -46.5660   -35.8720    -1.4790 c6         1 WWN      -0.072900
     13 C09        -46.9570   -34.4590    -1.0410 c6         1 WWN      -0.071900
     14 C21        -46.6180   -30.2780     5.8240 ca         1 WWN       0.257000
     15 C23        -44.4350   -29.8210     5.8230 ca         1 WWN       0.148900
     16 N10        -44.6590   -30.5730     0.6050 ns         1 WWN      -0.512900
     17 N15        -45.5910   -28.7550     2.6400 nu         1 WWN      -0.923100
     18 N18        -48.0540   -29.9260     4.1860 na         1 WWN      -0.305600
     19 N20        -47.8450   -30.7250     6.2630 nd         1 WWN      -0.639700
     20 N22        -45.4570   -30.3120     6.5080 nb         1 WWN      -0.148000
     21 N24        -44.4280   -29.3190     4.5780 nb         1 WWN      -0.264000
     22 O01        -44.9620   -32.1910     2.1690 o          1 WWN      -0.597100
     23 H141       -43.6800   -27.9380     2.4950 h1         1 WWN       0.063200
     24 H142       -44.6700   -27.8520     1.0360 h1         1 WWN       0.063200
     25 H133       -40.8140   -30.3650    -0.5160 hc         1 WWN       0.038700
     26 H131       -41.3030   -31.1760     0.9760 hc         1 WWN       0.038700
     27 H132       -42.2780   -31.3510    -0.4850 hc         1 WWN       0.038700
     28 H121       -41.8610   -28.7290     1.0610 hc         1 WWN       0.042700
     29 H122       -42.8220   -28.8850    -0.3980 hc         1 WWN       0.042700
     30 H111       -43.3990   -30.3660     2.2040 h1         1 WWN       0.107700
     31 H191       -49.7200   -30.7230     5.2460 h5         1 WWN       0.065800
     32 H032       -46.3980   -31.7420    -0.7490 hc         1 WWN       0.052700
     33 H031       -47.1910   -32.3910     0.6870 hc         1 WWN       0.052700
     34 H041       -45.6510   -34.3430     0.6510 hc         1 WWN       0.072700
     35 H051       -43.7250   -33.3170    -0.5100 hc         1 WWN       0.037200
     36 H052       -44.6820   -33.1380    -1.9720 hc         1 WWN       0.037200
     37 H061       -43.8930   -35.7750    -0.6430 hc         1 WWN       0.041700
     38 H062       -43.2360   -35.1380    -2.1430 hc         1 WWN       0.041700
     39 H072       -45.4460   -35.3280    -3.2360 hc         1 WWN       0.038200
     40 H071       -44.9860   -36.8860    -2.5620 hc         1 WWN       0.038200
     41 H081       -47.3770   -36.3230    -2.0570 hc         1 WWN       0.041700
     42 H082       -46.4250   -36.4970    -0.5900 hc         1 WWN       0.041700
     43 H092       -47.1980   -33.8600    -1.9280 hc         1 WWN       0.037200
     44 H091       -47.8610   -34.4900    -0.4260 hc         1 WWN       0.037200
     45 H231       -43.4720   -29.8240     6.3240 h5         1 WWN       0.048100
     46 H101       -44.9450   -30.2380    -0.3020 hn         1 WWN       0.303500
     47 H151       -46.4420   -28.8540     2.1110 hn         1 WWN       0.475000
     48 H181       -48.5040   -29.6840     3.3160 hn         1 WWN       0.353000
     49 C02        -45.2340   -31.7000     1.0690 c          1 WWN       0.587100
     50 C13        -41.6740   -30.6500     0.0930 c3         1 WWN      -0.087100
@<TRIPOS>BOND
     1     1     2 ar  
     2     1    17 1   
     3     1    21 ar  
     4     2    14 ar  
     5     2    18 1   
     6     3     5 1   
     7     3    17 1   
     8     3    23 1   
     9     3    24 1   
    10     4     5 1   
    11     4    28 1   
    12     4    29 1   
    13     4    50 1   
    14     5    16 1   
    15     5    30 1   
    16     6    18 1   
    17     6    19 2   
    18     6    31 1   
    19     7     8 1   
    20     7    32 1   
    21     7    33 1   
    22     7    49 1   
    23     8     9 1   
    24     8    13 1   
    25     8    34 1   
    26     9    10 1   
    27     9    35 1   
    28     9    36 1   
    29    10    11 1   
    30    10    37 1   
    31    10    38 1   
    32    11    12 1   
    33    11    39 1   
    34    11    40 1   
    35    12    13 1   
    36    12    41 1   
    37    12    42 1   
    38    13    43 1   
    39    13    44 1   
    40    14    19 1   
    41    14    20 ar  
    42    15    20 ar  
    43    15    21 ar  
    44    15    45 1   
    45    16    46 1   
    46    16    49 1   
    47    17    47 1   
    48    18    48 1   
    49    22    49 2   
    50    25    50 1   
    51    26    50 1   
    52    27    50 1   
@<TRIPOS>SUBSTRUCTURE
     1 WWN         1 TEMP              0 ****  ****    0 ROOT
