@<TRIPOS>MOLECULE
WWN
   50    52     1     0     0
SMALL
No Charge or Current Charge


@<TRIPOS>ATOM
      1 C16        -45.5600   -29.2180     3.8920 ca         1 WWN       0.412900
      2 C17        -46.7350   -29.8320     4.3470 ca         1 WWN      -0.247200
      3 C14        -44.2910   -28.3390     1.8470 c3         1 WWN       0.216800
      4 C12        -42.4190   -29.4190     0.4500 c3         1 WWN      -0.083400
      5 C11        -43.6240   -29.6720     1.3890 c3         1 WWN       0.072700
      6 C19        -48.7490   -30.6790     4.7010 cc         1 WWN       0.430700
      7 C03        -46.1860   -32.4550     0.5670 c3         1 WWN      -0.151400
      8 C04        -45.7710   -33.8230    -0.0540 c6         1 WWN      -0.054700
      9 C05        -44.6010   -33.6780    -1.0700 c6         1 WWN      -0.071900
     10 C06        -44.2120   -35.0420    -1.6920 c6         1 WWN      -0.072900
     11 C07        -45.4330   -35.7270    -2.3530 c6         1 WWN      -0.075400
     12 C08        -46.5950   -35.8850    -1.3430 c6         1 WWN      -0.072900
     13 C09        -46.9880   -34.5210    -0.7250 c6         1 WWN      -0.071900
     14 C21        -46.7490   -30.4880     5.5480 ca         1 WWN       0.257000
     15 C23        -44.5450   -29.9340     5.8240 ca         1 WWN       0.148900
     16 N10        -44.6000   -30.5880     0.7670 ns         1 WWN      -0.512900
     17 N15        -45.5040   -28.5620     2.6680 nu         1 WWN      -0.923100
     18 N18        -47.9860   -29.9450     3.8000 na         1 WWN      -0.305600
     19 N20        -48.0170   -31.0230     5.7820 nd         1 WWN      -0.639700
     20 N22        -45.6460   -30.5520     6.3180 nb         1 WWN      -0.148000
     21 N24        -44.4450   -29.2690     4.6470 nb         1 WWN      -0.264000
     22 O01        -44.6210   -32.1930     2.3940 o          1 WWN      -0.597100
     23 H141       -43.5560   -27.7480     2.4120 h1         1 WWN       0.063200
     24 H142       -44.5580   -27.7570     0.9540 h1         1 WWN       0.063200
     25 H133       -40.7630   -30.4350    -0.5410 hc         1 WWN       0.038700
     26 H131       -41.3320   -31.2560     0.9280 hc         1 WWN       0.038700
     27 H132       -42.2810   -31.3480    -0.5750 hc         1 WWN       0.038700
     28 H121       -41.7180   -28.7390     0.9510 hc         1 WWN       0.042700
     29 H122       -42.7630   -28.9040    -0.4560 hc         1 WWN       0.042700
     30 H111       -43.2280   -30.1520     2.2940 h1         1 WWN       0.107700
     31 H191       -49.7910   -30.9190     4.5220 h5         1 WWN       0.065800
     32 H032       -46.5480   -31.7930    -0.2290 hc         1 WWN       0.052700
     33 H031       -47.0060   -32.6250     1.2740 hc         1 WWN       0.052700
     34 H041       -45.4290   -34.4540     0.7800 hc         1 WWN       0.072700
     35 H051       -43.7200   -33.2510    -0.5730 hc         1 WWN       0.037200
     36 H052       -44.8820   -32.9760    -1.8670 hc         1 WWN       0.037200
     37 H061       -43.7960   -35.6980    -0.9150 hc         1 WWN       0.041700
     38 H062       -43.4180   -34.8980    -2.4370 hc         1 WWN       0.041700
     39 H072       -45.7690   -35.1350    -3.2150 hc         1 WWN       0.038200
     40 H071       -45.1420   -36.7120    -2.7440 hc         1 WWN       0.038200
     41 H081       -47.4650   -36.3320    -1.8430 hc         1 WWN       0.041700
     42 H082       -46.3010   -36.5830    -0.5460 hc         1 WWN       0.041700
     43 H092       -47.4060   -33.8720    -1.5070 hc         1 WWN       0.037200
     44 H091       -47.7870   -34.6720     0.0140 hc         1 WWN       0.037200
     45 H231       -43.6470   -29.9790     6.4360 h5         1 WWN       0.048100
     46 H101       -45.0290   -30.3130    -0.1070 hn         1 WWN       0.303500
     47 H151       -46.3900   -28.5300     2.1700 hn         1 WWN       0.475000
     48 H181       -48.3200   -29.5720     2.9200 hn         1 WWN       0.353000
     49 C02        -45.0580   -31.7570     1.3380 c          1 WWN       0.587100
     50 C13        -41.6540   -30.6950     0.0420 c3         1 WWN      -0.087100
@<TRIPOS>BOND
     1     1     2 ar  
     2     1    17 1   
     3     1    21 ar  
     4     2    14 ar  
     5     2    18 1   
     6     3     5 1   
     7     3    17 1   
     8     3    23 1   
     9     3    24 1   
    10     4     5 1   
    11     4    28 1   
    12     4    29 1   
    13     4    50 1   
    14     5    16 1   
    15     5    30 1   
    16     6    18 1   
    17     6    19 2   
    18     6    31 1   
    19     7     8 1   
    20     7    32 1   
    21     7    33 1   
    22     7    49 1   
    23     8     9 1   
    24     8    13 1   
    25     8    34 1   
    26     9    10 1   
    27     9    35 1   
    28     9    36 1   
    29    10    11 1   
    30    10    37 1   
    31    10    38 1   
    32    11    12 1   
    33    11    39 1   
    34    11    40 1   
    35    12    13 1   
    36    12    41 1   
    37    12    42 1   
    38    13    43 1   
    39    13    44 1   
    40    14    19 1   
    41    14    20 ar  
    42    15    20 ar  
    43    15    21 ar  
    44    15    45 1   
    45    16    46 1   
    46    16    49 1   
    47    17    47 1   
    48    18    48 1   
    49    22    49 2   
    50    25    50 1   
    51    26    50 1   
    52    27    50 1   
@<TRIPOS>SUBSTRUCTURE
     1 WWN         1 TEMP              0 ****  ****    0 ROOT
