@<TRIPOS>MOLECULE
WWP
   31    33     1     0     0
SMALL
No Charge or Current Charge


@<TRIPOS>ATOM
      1 C10        -45.1600   -30.3650     0.8910 ca         1 WWP      -0.111300
      2 C13        -42.9650   -33.3940     1.8230 c3         1 WWP       0.344300
      3 C17        -44.3730   -32.8250    -0.2410 ca         1 WWP      -0.049000
      4 C20        -47.3740   -29.5930     3.1950 cc         1 WWP       0.587400
      5 C02        -47.0730   -29.4090     5.5020 cd         1 WWP       0.734900
      6 C03        -45.7950   -28.9530     5.2630 cc         1 WWP      -0.108600
      7 C05        -43.7980   -28.2200     5.3130 cd         1 WWP       0.535200
      8 C07        -45.3110   -28.8220     4.0070 cc         1 WWP      -0.088000
      9 C09        -45.5870   -29.0290     1.4950 c3         1 WWP       0.123900
     10 C11        -44.3000   -31.2320     1.5960 ca         1 WWP      -0.028000
     11 C12        -43.9070   -32.4700     1.0430 ca         1 WWP      -0.188300
     12 C18        -45.2250   -31.9620    -0.9490 ca         1 WWP      -0.113000
     13 C19        -45.6190   -30.7370    -0.3870 ca         1 WWP      -0.066000
     14 F14        -43.0750   -34.6880     1.4430 f          1 WWP      -0.112000
     15 F15        -43.2060   -33.3610     3.1530 f          1 WWP      -0.112000
     16 F16        -41.6730   -33.0390     1.6470 f          1 WWP      -0.112000
     17 N01        -47.6650   -29.5680     6.6820 nv         1 WWP      -1.042900
     18 N04        -44.8190   -28.5610     6.1310 nc         1 WWP      -0.596100
     19 N06        -44.0860   -28.3770     3.9400 nd         1 WWP      -0.427300
     20 N08        -46.0640   -29.1370     2.8900 na         1 WWP      -0.160500
     21 N21        -47.8870   -29.7260     4.4470 nd         1 WWP      -0.806000
     22 H171       -44.0750   -33.7670    -0.6990 ha         1 WWP       0.133000
     23 H201       -47.9890   -29.8460     2.3390 h5         1 WWP       0.048100
     24 H051       -42.8360   -27.8550     5.6570 h5         1 WWP       0.055800
     25 H091       -44.7420   -28.3310     1.4470 h1         1 WWP       0.076200
     26 H092       -46.3910   -28.5910     0.8900 h1         1 WWP       0.076200
     27 H111       -43.9310   -30.9390     2.5770 ha         1 WWP       0.137000
     28 H181       -45.5800   -32.2430    -1.9380 ha         1 WWP       0.125000
     29 H191       -46.2790   -30.0790    -0.9480 ha         1 WWP       0.114000
     30 H012       -48.6750   -29.5620     6.6380 hn         1 WWP       0.515500
     31 H011       -47.2480   -29.0440     7.4420 hn         1 WWP       0.515500
@<TRIPOS>BOND
     1     1     9 1   
     2     1    10 ar  
     3     1    13 ar  
     4     2    11 1   
     5     2    14 1   
     6     2    15 1   
     7     2    16 1   
     8     3    11 ar  
     9     3    12 ar  
    10     3    22 1   
    11     4    20 1   
    12     4    21 2   
    13     4    23 1   
    14     5     6 2   
    15     5    17 1   
    16     5    21 1   
    17     6     8 1   
    18     6    18 1   
    19     7    18 2   
    20     7    19 1   
    21     7    24 1   
    22     8    19 2   
    23     8    20 1   
    24     9    20 1   
    25     9    25 1   
    26     9    26 1   
    27    10    11 ar  
    28    10    27 1   
    29    12    13 ar  
    30    12    28 1   
    31    13    29 1   
    32    17    30 1   
    33    17    31 1   
@<TRIPOS>SUBSTRUCTURE
     1 WWP         1 TEMP              0 ****  ****    0 ROOT
