@<TRIPOS>MOLECULE
WWP
   31    33     1     0     0
SMALL
abcg2


@<TRIPOS>ATOM
      1 C10        -44.8310   -30.4850     1.3310 ca         1 WWP      -0.111300
      2 C13        -41.9810   -32.7670     0.3430 c3         1 WWP       0.344300
      3 C17        -44.4490   -33.1280     0.5000 ca         1 WWP      -0.049000
      4 C20        -47.1870   -28.4590     2.7820 cc         1 WWP       0.587400
      5 C02        -47.7100   -28.7190     5.0190 cd         1 WWP       0.734900
      6 C03        -46.4130   -29.1980     5.2460 cc         1 WWP      -0.108600
      7 C05        -44.5450   -29.9450     5.8990 cd         1 WWP       0.535200
      8 C07        -45.5240   -29.2910     4.1620 cc         1 WWP      -0.088000
      9 C09        -45.0260   -29.0470     1.7520 c3         1 WWP       0.123900
     10 C11        -43.5490   -30.9600     1.0770 ca         1 WWP      -0.028000
     11 C12        -43.3620   -32.2750     0.6620 ca         1 WWP      -0.188300
     12 C18        -45.7290   -32.6530     0.7570 ca         1 WWP      -0.113000
     13 C19        -45.9190   -31.3400     1.1670 ca         1 WWP      -0.066000
     14 F14        -41.8160   -34.0750     0.6390 f          1 WWP      -0.112000
     15 F15        -41.0210   -32.0900     1.0070 f          1 WWP      -0.112000
     16 F16        -41.6910   -32.6400    -0.9790 f          1 WWP      -0.112000
     17 N01        -48.6350   -28.6010     5.9760 nv         1 WWP      -1.042900
     18 N04        -45.7540   -29.6300     6.3710 nc         1 WWP      -0.596100
     19 N06        -44.3380   -29.7630     4.5610 nd         1 WWP      -0.427300
     20 N08        -45.9240   -28.9150     2.9050 na         1 WWP      -0.160500
     21 N21        -48.0570   -28.3520     3.7540 nd         1 WWP      -0.806000
     22 H171       -44.3000   -34.1510     0.1830 ha         1 WWP       0.133000
     23 H201       -47.4820   -28.1650     1.7820 h5         1 WWP       0.048100
     24 H051       -43.7600   -30.3260     6.5370 h5         1 WWP       0.055800
     25 H091       -44.0710   -28.5980     2.0180 h1         1 WWP       0.076200
     26 H092       -45.4620   -28.4630     0.9410 h1         1 WWP       0.076200
     27 H111       -42.6980   -30.3060     1.2140 ha         1 WWP       0.137000
     28 H181       -46.5800   -33.3100     0.6370 ha         1 WWP       0.125000
     29 H191       -46.9220   -30.9840     1.3660 ha         1 WWP       0.114000
     30 H012       -49.5480   -28.2380     5.7540 hn         1 WWP       0.515500
     31 H011       -48.4230   -28.8480     6.9280 hn         1 WWP       0.515500
@<TRIPOS>BOND
     1     1     9 1   
     2     1    10 ar  
     3     1    13 ar  
     4     2    11 1   
     5     2    14 1   
     6     2    15 1   
     7     2    16 1   
     8     3    11 ar  
     9     3    12 ar  
    10     3    22 1   
    11     4    20 1   
    12     4    21 2   
    13     4    23 1   
    14     5     6 2   
    15     5    17 1   
    16     5    21 1   
    17     6     8 1   
    18     6    18 1   
    19     7    18 2   
    20     7    19 1   
    21     7    24 1   
    22     8    19 2   
    23     8    20 1   
    24     9    20 1   
    25     9    25 1   
    26     9    26 1   
    27    10    11 ar  
    28    10    27 1   
    29    12    13 ar  
    30    12    28 1   
    31    13    29 1   
    32    17    30 1   
    33    17    31 1   
@<TRIPOS>SUBSTRUCTURE
     1 WWP         1 TEMP              0 ****  ****    0 ROOT
