@<TRIPOS>MOLECULE
WWQ
   73    77     1     0     0
SMALL
abcg2


@<TRIPOS>ATOM
      1 C1          29.0470     0.6530    32.3040 c6         1 WWQ      -0.168700
      2 C2          29.1250     1.9820    31.5430 c6         1 WWQ       0.129000
      3 C3          27.9900     2.3490    29.3630 c          1 WWQ       0.528600
      4 C4          27.1340     3.4200    29.9940 ca         1 WWQ       0.333500
      5 C5          25.7760     3.1970    30.1020 ca         1 WWQ      -0.173000
      6 C6          24.9380     4.1920    30.6410 ca         1 WWQ       0.358000
      7 C7          23.0430     2.6560    30.9610 c6         1 WWQ       0.211800
      8 C9          19.3820     3.4780    30.8290 c3         1 WWQ       0.152100
      9 C10         21.3100     4.9050    30.9590 c6         1 WWQ       0.150800
     10 C11         22.7580     5.0310    31.4030 c6         1 WWQ       0.211800
     11 C12         25.5840     5.3920    31.0070 ca         1 WWQ      -0.237000
     12 C13         26.9500     5.5180    30.8300 ca         1 WWQ       0.357900
     13 C14         29.8960     0.8370    29.5020 c6         1 WWQ       0.093000
     14 C16         30.0140    -0.3780    31.6900 c6         1 WWQ      -0.067400
     15 O2          18.3830     1.7070    33.9110 o          1 WWQ      -0.602100
     16 N5          17.7440     0.1810    32.3740 nt         1 WWQ      -0.608000
     17 C23         19.9720     0.0350    33.3160 ca         1 WWQ      -0.152600
     18 C22         21.0730     0.7820    33.7370 ca         1 WWQ      -0.069500
     19 C21         22.3230     0.1970    33.8430 ca         1 WWQ      -0.112500
     20 C25         20.1520    -1.3180    33.0190 ca         1 WWQ      -0.069500
     21 C26         21.4010    -1.9060    33.1440 ca         1 WWQ      -0.112500
     22 C20         22.5120    -1.1600    33.5540 cp         1 WWQ      -0.013000
     23 C19         23.8450    -1.7880    33.6890 cp         1 WWQ      -0.016000
     24 C18         24.9930    -1.0610    33.3600 ca         1 WWQ      -0.116000
     25 C27         23.9760    -3.0970    34.1630 ca         1 WWQ      -0.120000
     26 C28         25.2380    -3.6580    34.3140 ca         1 WWQ      -0.084000
     27 C29         26.3760    -2.9370    33.9870 ca         1 WWQ      -0.156000
     28 C17         26.2580    -1.6310    33.5000 ca         1 WWQ      -0.023000
     29 N4          27.4440    -0.9360    33.2020 ns         1 WWQ      -0.154000
     30 C           27.6080     0.1420    32.3840 c          1 WWQ       0.609100
     31 O           26.6850     0.6700    31.7780 o          1 WWQ      -0.581100
     32 C15         29.7860    -0.5210    30.1880 c6         1 WWQ      -0.100400
     33 N           28.9720     1.7990    30.1020 n          1 WWQ      -0.390800
     34 O1          27.7770     2.0440    28.1830 o          1 WWQ      -0.606100
     35 N3          27.7480     4.5590    30.3460 nb         1 WWQ      -0.692000
     36 N1          23.5830     4.0050    30.7740 nh         1 WWQ      -0.807400
     37 N2          20.7810     3.5740    31.2180 n3         1 WWQ      -0.712600
     38 C8          21.5900     2.5790    30.5290 c6         1 WWQ       0.150800
     39 H1          29.3650     0.8510    33.3330 hc         1 WWQ       0.067700
     40 H2          30.1060     2.4280    31.7350 h1         1 WWQ       0.066200
     41 H3          28.3690     2.6680    31.9020 h1         1 WWQ       0.066200
     42 H4          25.3880     2.2460    29.7780 ha         1 WWQ       0.141000
     43 H5          23.1300     2.3750    32.0180 h1         1 WWQ       0.050700
     44 H6          23.6100     1.9380    30.3790 h1         1 WWQ       0.050700
     45 H7          18.7890     4.1920    31.4010 h1         1 WWQ       0.033367
     46 H8          19.2340     3.6860    29.7560 h1         1 WWQ       0.033367
     47 H9          19.0110     2.4740    31.0350 h1         1 WWQ       0.033367
     48 H10         21.2440     5.1520    29.8840 h1         1 WWQ       0.042450
     49 H11         20.7120     5.6380    31.5030 h1         1 WWQ       0.042450
     50 H12         22.8230     4.9550    32.4970 h1         1 WWQ       0.050700
     51 H13         23.1130     6.0150    31.1090 h1         1 WWQ       0.050700
     52 H14         25.0450     6.2180    31.4430 ha         1 WWQ       0.119000
     53 H15         27.4350     6.4460    31.1140 h4         1 WWQ       0.014100
     54 H16         29.6730     0.7710    28.4420 h1         1 WWQ       0.064200
     55 H17         30.9130     1.2270    29.6200 h1         1 WWQ       0.064200
     56 H18         29.9240    -1.3450    32.1890 hc         1 WWQ       0.044200
     57 H19         31.0340    -0.0270    31.8680 hc         1 WWQ       0.044200
     58 H20         16.8500     0.6340    32.2670 hn         1 WWQ       0.313500
     59 H21         17.9890    -0.5390    31.7160 hn         1 WWQ       0.313500
     60 H22         20.9390     1.8290    33.9680 ha         1 WWQ       0.128500
     61 H23         23.1610     0.7960    34.1750 ha         1 WWQ       0.120000
     62 H24         19.3150    -1.9300    32.7090 ha         1 WWQ       0.128500
     63 H25         21.5180    -2.9550    32.9060 ha         1 WWQ       0.120000
     64 H26         24.9050    -0.0580    32.9790 ha         1 WWQ       0.145000
     65 H27         23.0970    -3.6650    34.4370 ha         1 WWQ       0.118000
     66 H28         25.3370    -4.6670    34.6950 ha         1 WWQ       0.116000
     67 H29         27.3590    -3.3770    34.1020 ha         1 WWQ       0.111000
     68 H30         28.2810    -1.3280    33.6060 hn         1 WWQ       0.151000
     69 H31         28.7970    -0.9460    29.9910 hc         1 WWQ       0.056700
     70 H32         30.5240    -1.2010    29.7570 hc         1 WWQ       0.056700
     71 H34         21.5310     2.7110    29.4340 h1         1 WWQ       0.042450
     72 H35         21.2060     1.5850    30.7670 h1         1 WWQ       0.042450
     73 C24         18.6420     0.7130    33.2290 c          1 WWQ       0.610700
@<TRIPOS>BOND
     1     1     2 1   
     2     1    14 1   
     3     1    30 1   
     4     1    39 1   
     5     2    33 1   
     6     2    40 1   
     7     2    41 1   
     8     3     4 1   
     9     3    33 1   
    10     3    34 2   
    11     4     5 ar  
    12     4    35 ar  
    13     5     6 ar  
    14     5    42 1   
    15     6    11 ar  
    16     6    36 1   
    17     7    36 1   
    18     7    38 1   
    19     7    43 1   
    20     7    44 1   
    21     8    37 1   
    22     8    45 1   
    23     8    46 1   
    24     8    47 1   
    25     9    10 1   
    26     9    37 1   
    27     9    48 1   
    28     9    49 1   
    29    10    36 1   
    30    10    50 1   
    31    10    51 1   
    32    11    12 ar  
    33    11    52 1   
    34    12    35 ar  
    35    12    53 1   
    36    13    32 1   
    37    13    33 1   
    38    13    54 1   
    39    13    55 1   
    40    14    32 1   
    41    14    56 1   
    42    14    57 1   
    43    15    73 2   
    44    16    58 1   
    45    16    59 1   
    46    16    73 1   
    47    17    18 ar  
    48    17    20 ar  
    49    17    73 1   
    50    18    19 ar  
    51    18    60 1   
    52    19    22 ar  
    53    19    61 1   
    54    20    21 ar  
    55    20    62 1   
    56    21    22 ar  
    57    21    63 1   
    58    22    23 1   
    59    23    24 ar  
    60    23    25 ar  
    61    24    28 ar  
    62    24    64 1   
    63    25    26 ar  
    64    25    65 1   
    65    26    27 ar  
    66    26    66 1   
    67    27    28 ar  
    68    27    67 1   
    69    28    29 1   
    70    29    30 1   
    71    29    68 1   
    72    30    31 2   
    73    32    69 1   
    74    32    70 1   
    75    37    38 1   
    76    38    71 1   
    77    38    72 1   
@<TRIPOS>SUBSTRUCTURE
     1 WWQ         1 TEMP              0 ****  ****    0 ROOT
