@<TRIPOS>MOLECULE
WWQ
   73    77     1     0     0
SMALL
No Charge or Current Charge


@<TRIPOS>ATOM
      1 C1          29.2490    -0.0430    31.7200 c6         1 WWQ      -0.168700
      2 C2          29.3490     1.4750    31.4320 c6         1 WWQ       0.129000
      3 C3          27.7820     2.3730    29.6030 c          1 WWQ       0.528600
      4 C4          27.0290     3.3310    30.5510 ca         1 WWQ       0.333500
      5 C5          25.6350     3.4560    30.4050 ca         1 WWQ      -0.173000
      6 C6          24.9190     4.3530    31.2040 ca         1 WWQ       0.358000
      7 C7          22.6330     3.2720    31.1000 c6         1 WWQ       0.211800
      8 C9          19.2500     4.9010    30.1520 c3         1 WWQ       0.152100
      9 C10         21.4420     5.9130    30.7030 c6         1 WWQ       0.150800
     10 C11         22.8050     5.7390    31.4490 c6         1 WWQ       0.211800
     11 C12         25.6320     5.1240    32.1290 ca         1 WWQ      -0.237000
     12 C13         27.0180     4.9740    32.2130 ca         1 WWQ       0.357900
     13 C14         29.8490     1.0060    29.0480 c6         1 WWQ       0.093000
     14 C16         30.0230    -0.9230    30.7010 c6         1 WWQ      -0.067400
     15 O2          18.2410     0.4650    31.7830 o          1 WWQ      -0.602100
     16 N5          17.5950    -1.5700    32.3730 nt         1 WWQ      -0.608000
     17 C23         19.9390    -0.9240    32.7670 ca         1 WWQ      -0.152600
     18 C22         20.9450     0.0640    32.6830 ca         1 WWQ      -0.069500
     19 C21         22.2510    -0.1980    33.1310 ca         1 WWQ      -0.112500
     20 C25         20.2770    -2.1820    33.3180 ca         1 WWQ      -0.069500
     21 C26         21.5830    -2.4360    33.7710 ca         1 WWQ      -0.112500
     22 C20         22.5980    -1.4530    33.6850 cp         1 WWQ      -0.013000
     23 C19         23.9850    -1.7310    34.1730 cp         1 WWQ      -0.016000
     24 C18         25.1190    -1.2380    33.4790 ca         1 WWQ      -0.116000
     25 C27         24.2010    -2.4920    35.3470 ca         1 WWQ      -0.120000
     26 C28         25.4990    -2.7420    35.8170 ca         1 WWQ      -0.084000
     27 C29         26.6070    -2.2420    35.1170 ca         1 WWQ      -0.156000
     28 C17         26.4300    -1.4960    33.9380 ca         1 WWQ      -0.023000
     29 N4          27.5970    -1.0230    33.2790 ns         1 WWQ      -0.154000
     30 C           27.8020    -0.5050    32.0060 c          1 WWQ       0.609100
     31 O           26.9220    -0.4100    31.1590 o          1 WWQ      -0.581100
     32 C15         29.6770    -0.5190    29.2490 c6         1 WWQ      -0.100400
     33 N           29.0120     1.7790    30.0100 n          1 WWQ      -0.390800
     34 O1          27.3570     2.1630    28.4670 o          1 WWQ      -0.606100
     35 N3          27.7100     4.1110    31.4420 nb         1 WWQ      -0.692000
     36 N1          23.5190     4.4810    31.0570 nh         1 WWQ      -0.807400
     37 N2          20.5540     4.7170    30.8240 n3         1 WWQ      -0.712600
     38 C8          21.2800     3.4990    30.3490 c6         1 WWQ       0.150800
     39 H1          29.7780    -0.1900    32.6720 hc         1 WWQ       0.067700
     40 H2          30.3770     1.8160    31.6250 h1         1 WWQ       0.066200
     41 H3          28.6990     2.0020    32.1400 h1         1 WWQ       0.066200
     42 H4          25.1170     2.8610    29.6620 ha         1 WWQ       0.141000
     43 H5          22.4140     3.0160    32.1470 h1         1 WWQ       0.050700
     44 H6          23.1310     2.3990    30.6540 h1         1 WWQ       0.050700
     45 H7          18.7250     5.7760    30.5590 h1         1 WWQ       0.033367
     46 H8          19.3820     5.0490    29.0720 h1         1 WWQ       0.033367
     47 H9          18.6090     4.0220    30.3030 h1         1 WWQ       0.033367
     48 H10         21.6530     6.1170    29.6420 h1         1 WWQ       0.042450
     49 H11         20.9370     6.8040    31.1030 h1         1 WWQ       0.042450
     50 H12         22.6140     5.7350    32.5330 h1         1 WWQ       0.050700
     51 H13         23.4290     6.6180    31.2280 h1         1 WWQ       0.050700
     52 H14         25.1340     5.8310    32.7820 ha         1 WWQ       0.119000
     53 H15         27.5980     5.5660    32.9190 h4         1 WWQ       0.014100
     54 H16         29.6030     1.2740    28.0110 h1         1 WWQ       0.064200
     55 H17         30.9050     1.2760    29.2010 h1         1 WWQ       0.064200
     56 H18         29.8090    -1.9880    30.8670 hc         1 WWQ       0.044200
     57 H19         31.1040    -0.7960    30.8580 hc         1 WWQ       0.044200
     58 H20         16.6620    -1.3730    32.0450 hn         1 WWQ       0.313500
     59 H21         17.8190    -2.4670    32.7730 hn         1 WWQ       0.313500
     60 H22         20.7140     1.0440    32.2740 ha         1 WWQ       0.128500
     61 H23         22.9990     0.5880    33.0640 ha         1 WWQ       0.120000
     62 H24         19.5390    -2.9760    33.4030 ha         1 WWQ       0.128500
     63 H25         21.8150    -3.4160    34.1810 ha         1 WWQ       0.120000
     64 H26         24.9580    -0.6540    32.5790 ha         1 WWQ       0.145000
     65 H27         23.3540    -2.8760    35.9100 ha         1 WWQ       0.118000
     66 H28         25.6460    -3.3210    36.7270 ha         1 WWQ       0.116000
     67 H29         27.6090    -2.4430    35.4900 ha         1 WWQ       0.111000
     68 H30         28.4330    -1.0710    33.8460 hn         1 WWQ       0.151000
     69 H31         28.6440    -0.8070    29.0120 hc         1 WWQ       0.056700
     70 H32         30.3220    -1.0630    28.5450 hc         1 WWQ       0.056700
     71 H34         21.4930     3.5840    29.2730 h1         1 WWQ       0.042450
     72 H35         20.6520     2.6070    30.4790 h1         1 WWQ       0.042450
     73 C24         18.5420    -0.6120    32.2710 c          1 WWQ       0.610700
@<TRIPOS>BOND
     1     1     2 1   
     2     1    14 1   
     3     1    30 1   
     4     1    39 1   
     5     2    33 1   
     6     2    40 1   
     7     2    41 1   
     8     3     4 1   
     9     3    33 1   
    10     3    34 2   
    11     4     5 ar  
    12     4    35 ar  
    13     5     6 ar  
    14     5    42 1   
    15     6    11 ar  
    16     6    36 1   
    17     7    36 1   
    18     7    38 1   
    19     7    43 1   
    20     7    44 1   
    21     8    37 1   
    22     8    45 1   
    23     8    46 1   
    24     8    47 1   
    25     9    10 1   
    26     9    37 1   
    27     9    48 1   
    28     9    49 1   
    29    10    36 1   
    30    10    50 1   
    31    10    51 1   
    32    11    12 ar  
    33    11    52 1   
    34    12    35 ar  
    35    12    53 1   
    36    13    32 1   
    37    13    33 1   
    38    13    54 1   
    39    13    55 1   
    40    14    32 1   
    41    14    56 1   
    42    14    57 1   
    43    15    73 2   
    44    16    58 1   
    45    16    59 1   
    46    16    73 1   
    47    17    18 ar  
    48    17    20 ar  
    49    17    73 1   
    50    18    19 ar  
    51    18    60 1   
    52    19    22 ar  
    53    19    61 1   
    54    20    21 ar  
    55    20    62 1   
    56    21    22 ar  
    57    21    63 1   
    58    22    23 1   
    59    23    24 ar  
    60    23    25 ar  
    61    24    28 ar  
    62    24    64 1   
    63    25    26 ar  
    64    25    65 1   
    65    26    27 ar  
    66    26    66 1   
    67    27    28 ar  
    68    27    67 1   
    69    28    29 1   
    70    29    30 1   
    71    29    68 1   
    72    30    31 2   
    73    32    69 1   
    74    32    70 1   
    75    37    38 1   
    76    38    71 1   
    77    38    72 1   
@<TRIPOS>SUBSTRUCTURE
     1 WWQ         1 TEMP              0 ****  ****    0 ROOT
