@<TRIPOS>MOLECULE
WWR
   23    24     1     0     0
SMALL
No Charge or Current Charge


@<TRIPOS>ATOM
      1 C10        -21.7730   -26.2050    -2.6340 ca         1 WWR      -0.113000
      2 C13        -18.9710   -26.3800    -2.5150 ca         1 WWR      -0.093000
      3 C02        -16.9940   -23.3570    -1.4680 c          1 WWR       0.564000
      4 N03        -17.0290   -22.5220    -0.3940 ns         1 WWR      -0.504600
      5 C04        -18.2470   -21.8760    -0.2380 cc         1 WWR      -0.173400
      6 C05        -19.0320   -22.3260    -1.2740 cd         1 WWR      -0.161400
      7 N06        -18.2700   -23.2200    -2.0190 n          1 WWR      -0.295000
      8 C07        -18.7220   -23.9490    -3.2160 c3         1 WWR       0.163300
      9 C08        -19.5800   -25.1650    -2.8860 ca         1 WWR      -0.117300
     10 C09        -20.9850   -25.0830    -2.9420 ca         1 WWR      -0.093000
     11 C11        -21.1610   -27.4160    -2.2670 ca         1 WWR      -0.102000
     12 C12        -19.7600   -27.5030    -2.2070 ca         1 WWR      -0.113000
     13 H1         -22.8580   -26.1370    -2.6790 ha         1 WWR       0.114000
     14 H2         -17.8870   -26.4540    -2.4640 ha         1 WWR       0.118000
     15 H3         -16.2130   -22.4210     0.2060 hn         1 WWR       0.464000
     16 H4         -18.4160   -21.1800     0.5840 h4         1 WWR       0.225000
     17 H5         -20.0590   -22.1030    -1.5570 h4         1 WWR       0.227000
     18 H6         -17.8460   -24.2700    -3.7950 h1         1 WWR       0.069700
     19 H7         -19.2910   -23.2590    -3.8520 h1         1 WWR       0.069700
     20 H8         -21.4680   -24.1490    -3.2230 ha         1 WWR       0.118000
     21 H9         -21.7720   -28.2840    -2.0280 ha         1 WWR       0.113000
     22 H10        -19.2850   -28.4390    -1.9220 ha         1 WWR       0.114000
     23 O01        -16.0620   -24.0480    -1.8440 o          1 WWR      -0.593000
@<TRIPOS>BOND
     1     1    10 ar  
     2     1    11 ar  
     3     1    13 1   
     4     2     9 ar  
     5     2    12 ar  
     6     2    14 1   
     7     3     4 1   
     8     3     7 1   
     9     3    23 2   
    10     4     5 1   
    11     4    15 1   
    12     5     6 2   
    13     5    16 1   
    14     6     7 1   
    15     6    17 1   
    16     7     8 1   
    17     8     9 1   
    18     8    18 1   
    19     8    19 1   
    20     9    10 ar  
    21    10    20 1   
    22    11    12 ar  
    23    11    21 1   
    24    12    22 1   
@<TRIPOS>SUBSTRUCTURE
     1 WWR         1 TEMP              0 ****  ****    0 ROOT
