@<TRIPOS>MOLECULE
WWR
   23    24     1     0     0
SMALL
abcg2


@<TRIPOS>ATOM
      1 C10        -21.7450   -26.2440    -2.8240 ca         1 WWR      -0.113000
      2 C13        -19.0210   -26.2140    -2.3030 ca         1 WWR      -0.093000
      3 C02        -16.9700   -23.3280    -1.6310 c          1 WWR       0.564000
      4 N03        -16.9420   -22.6190    -0.4640 ns         1 WWR      -0.504600
      5 C04        -18.1930   -22.1120    -0.1650 cc         1 WWR      -0.173400
      6 C05        -19.0190   -22.4970    -1.1500 cd         1 WWR      -0.161400
      7 N06        -18.2700   -23.2320    -2.0560 n          1 WWR      -0.295000
      8 C07        -18.7930   -23.8870    -3.2330 c3         1 WWR       0.163300
      9 C08        -19.6180   -25.1030    -2.8940 ca         1 WWR      -0.117300
     10 C09        -20.9830   -25.1280    -3.1520 ca         1 WWR      -0.093000
     11 C11        -21.1450   -27.3450    -2.2320 ca         1 WWR      -0.102000
     12 C12        -19.7780   -27.3280    -1.9720 ca         1 WWR      -0.113000
     13 H1         -22.8080   -26.2490    -3.0300 ha         1 WWR       0.114000
     14 H2         -17.9550   -26.2100    -2.1030 ha         1 WWR       0.118000
     15 H3         -16.1130   -22.5000     0.0930 hn         1 WWR       0.464000
     16 H4         -18.3820   -21.5210     0.7140 h4         1 WWR       0.225000
     17 H5         -20.0700   -22.3100    -1.2940 h4         1 WWR       0.227000
     18 H6         -17.9440   -24.1620    -3.8590 h1         1 WWR       0.069700
     19 H7         -19.3910   -23.1710    -3.7990 h1         1 WWR       0.069700
     20 H8         -21.4580   -24.2690    -3.6120 ha         1 WWR       0.118000
     21 H9         -21.7360   -28.2140    -1.9750 ha         1 WWR       0.113000
     22 H10        -19.3030   -28.1860    -1.5150 ha         1 WWR       0.114000
     23 O01        -16.0450   -23.9180    -2.1800 o          1 WWR      -0.593000
@<TRIPOS>BOND
     1     1    10 ar  
     2     1    11 ar  
     3     1    13 1   
     4     2     9 ar  
     5     2    12 ar  
     6     2    14 1   
     7     3     4 1   
     8     3     7 1   
     9     3    23 2   
    10     4     5 1   
    11     4    15 1   
    12     5     6 2   
    13     5    16 1   
    14     6     7 1   
    15     6    17 1   
    16     7     8 1   
    17     8     9 1   
    18     8    18 1   
    19     8    19 1   
    20     9    10 ar  
    21    10    20 1   
    22    11    12 ar  
    23    11    21 1   
    24    12    22 1   
@<TRIPOS>SUBSTRUCTURE
     1 WWR         1 TEMP              0 ****  ****    0 ROOT
