@<TRIPOS>MOLECULE
WWS
   27    29     1     0     0
SMALL
No Charge or Current Charge


@<TRIPOS>ATOM
      1 C10        -44.5950   -28.6690     1.6190 ca         1 WWS       0.334300
      2 C13        -44.2660   -26.5760    -0.1540 ca         1 WWS       0.066000
      3 C15        -43.4910   -26.5890     1.0170 ca         1 WWS      -0.059000
      4 C17        -47.2960   -29.9850     3.0950 cc         1 WWS       0.590400
      5 C02        -48.2310   -29.2500     5.1030 cd         1 WWS       0.734900
      6 C03        -46.9700   -28.8790     5.5140 cc         1 WWS      -0.110600
      7 C05        -45.2150   -28.1820     6.4970 cd         1 WWS       0.533200
      8 C07        -45.8850   -29.0610     4.7280 cc         1 WWS      -0.091000
      9 C09        -44.8170   -29.8340     2.5700 c3         1 WWS       0.023300
     10 C12        -45.1790   -27.6280    -0.3750 ca         1 WWS       0.359900
     11 C16        -43.6620   -27.6560     1.9170 ca         1 WWS      -0.133000
     12 N01        -49.3670   -29.1370     5.7860 nv         1 WWS      -1.041900
     13 N04        -46.5500   -28.3070     6.6790 nc         1 WWS      -0.595100
     14 N06        -44.7580   -28.6580     5.2500 nd         1 WWS      -0.422300
     15 N08        -45.9720   -29.6310     3.4730 na         1 WWS      -0.163500
     16 N11        -45.3480   -28.6600     0.4920 nb         1 WWS      -0.657000
     17 N18        -48.4010   -29.8260     3.8710 nd         1 WWS      -0.807000
     18 Cl14       -44.0950   -25.2640    -1.3190 cl         1 WWS      -0.186000
     19 H151       -42.7790   -25.7930     1.2210 ha         1 WWS       0.138000
     20 H171       -47.3980   -30.4240     2.1090 h5         1 WWS       0.050100
     21 H051       -44.5370   -27.7570     7.2290 h5         1 WWS       0.055800
     22 H092       -44.9800   -30.7460     1.9830 h1         1 WWS       0.089700
     23 H091       -43.9100   -29.9970     3.1640 h1         1 WWS       0.089700
     24 H121       -45.7940   -27.6450    -1.2740 h4         1 WWS       0.039100
     25 H161       -43.0840   -27.6970     2.8360 ha         1 WWS       0.131000
     26 H012       -50.0940   -29.7680     5.4770 hn         1 WWS       0.516000
     27 H011       -49.2540   -29.0400     6.7880 hn         1 WWS       0.516000
@<TRIPOS>BOND
     1     1     9 1   
     2     1    11 ar  
     3     1    16 ar  
     4     2     3 ar  
     5     2    10 ar  
     6     2    18 1   
     7     3    11 ar  
     8     3    19 1   
     9     4    15 1   
    10     4    17 2   
    11     4    20 1   
    12     5     6 2   
    13     5    12 1   
    14     5    17 1   
    15     6     8 1   
    16     6    13 1   
    17     7    13 2   
    18     7    14 1   
    19     7    21 1   
    20     8    14 2   
    21     8    15 1   
    22     9    15 1   
    23     9    22 1   
    24     9    23 1   
    25    10    16 ar  
    26    10    24 1   
    27    11    25 1   
    28    12    26 1   
    29    12    27 1   
@<TRIPOS>SUBSTRUCTURE
     1 WWS         1 TEMP              0 ****  ****    0 ROOT
