@<TRIPOS>MOLECULE
WWS
   27    29     1     0     0
SMALL
abcg2


@<TRIPOS>ATOM
      1 C10        -44.9230   -28.7420     1.4520 ca         1 WWS       0.334300
      2 C13        -43.7740   -26.6520     0.1580 ca         1 WWS       0.066000
      3 C15        -44.8970   -26.4060     0.9310 ca         1 WWS      -0.059000
      4 C17        -47.6760   -29.7730     3.2520 cc         1 WWS       0.590400
      5 C02        -47.9600   -29.0660     5.4360 cd         1 WWS       0.734900
      6 C03        -46.5700   -28.9360     5.5560 cc         1 WWS      -0.110600
      7 C05        -44.5320   -28.6410     6.0370 cd         1 WWS       0.533200
      8 C07        -45.7620   -29.2490     4.4500 cc         1 WWS      -0.091000
      9 C09        -45.5070   -29.9730     2.1070 c3         1 WWS       0.023300
     10 C12        -43.2750   -27.9460     0.0650 ca         1 WWS       0.359900
     11 C16        -45.4840   -27.4770     1.5890 ca         1 WWS      -0.133000
     12 N01        -48.8170   -28.7920     6.4220 nv         1 WWS      -1.041900
     13 N04        -45.7460   -28.5420     6.5810 nc         1 WWS      -0.595100
     14 N06        -44.4690   -29.0660     4.7390 nd         1 WWS      -0.422300
     15 N08        -46.3300   -29.6730     3.2760 na         1 WWS      -0.163500
     16 N11        -43.8400   -28.9670     0.7050 nb         1 WWS      -0.657000
     17 N18        -48.4750   -29.4970     4.2500 nd         1 WWS      -0.807000
     18 CL14       -42.9780   -25.3560    -0.6920 cl         1 WWS      -0.186000
     19 H151       -45.3020   -25.4070     1.0180 ha         1 WWS       0.138000
     20 H171       -48.1020   -30.1110     2.3160 h5         1 WWS       0.050100
     21 H051       -43.6320   -28.4000     6.5870 h5         1 WWS       0.055800
     22 H092       -46.1310   -30.5120     1.3940 h1         1 WWS       0.089700
     23 H091       -44.6970   -30.6320     2.4120 h1         1 WWS       0.089700
     24 H121       -42.3980   -28.1550    -0.5360 h4         1 WWS       0.039100
     25 H161       -46.3610   -27.3170     2.2000 ha         1 WWS       0.131000
     26 H012       -49.8070   -28.9020     6.2760 hn         1 WWS       0.516000
     27 H011       -48.4840   -28.4690     7.3150 hn         1 WWS       0.516000
@<TRIPOS>BOND
     1     1     9 1   
     2     1    11 ar  
     3     1    16 ar  
     4     2     3 ar  
     5     2    10 ar  
     6     2    18 1   
     7     3    11 ar  
     8     3    19 1   
     9     4    15 1   
    10     4    17 2   
    11     4    20 1   
    12     5     6 2   
    13     5    12 1   
    14     5    17 1   
    15     6     8 1   
    16     6    13 1   
    17     7    13 2   
    18     7    14 1   
    19     7    21 1   
    20     8    14 2   
    21     8    15 1   
    22     9    15 1   
    23     9    22 1   
    24     9    23 1   
    25    10    16 ar  
    26    10    24 1   
    27    11    25 1   
    28    12    26 1   
    29    12    27 1   
@<TRIPOS>SUBSTRUCTURE
     1 WWS         1 TEMP              0 ****  ****    0 ROOT
