@<TRIPOS>MOLECULE
WWT
   28    29     1     0     0
SMALL
No Charge or Current Charge


@<TRIPOS>ATOM
      1 C16        -46.8820   -29.3240     5.0320 ca         1 WWT       0.104400
      2 C13        -48.7140   -28.8970     6.0130 cc         1 WWT       0.644100
      3 C11        -46.5650   -29.0710     6.3620 ca         1 WWT       0.343500
      4 C01        -46.0350   -32.8820     0.7660 c3         1 WWT      -0.089100
      5 C02        -44.8960   -32.0220     0.1800 c3         1 WWT      -0.097400
      6 C03        -45.0520   -30.5040     0.4230 c3         1 WWT       0.100000
      7 C07        -45.8580   -29.6410     4.1070 ca         1 WWT      -0.068600
      8 C08        -44.5430   -29.6740     4.6500 ca         1 WWT      -0.159000
      9 C09        -44.3280   -29.4020     6.0180 ca         1 WWT       0.334900
     10 N04        -45.0220   -30.1560     1.8490 ns         1 WWT      -0.505900
     11 N10        -45.3270   -29.1000     6.8790 nb         1 WWT      -0.649000
     12 N12        -47.7410   -28.8030     6.9670 na         1 WWT      -0.437300
     13 N15        -48.2600   -29.2110     4.8070 nd         1 WWT      -0.632100
     14 O06        -47.2590   -29.9750     2.1560 o          1 WWT      -0.576100
     15 O14        -49.9860   -28.6850     6.3040 oh         1 WWT      -0.602600
     16 H012       -45.8910   -33.9370     0.5010 hc         1 WWT       0.038367
     17 H013       -46.0610   -32.8090     1.8600 hc         1 WWT       0.038367
     18 H011       -47.0070   -32.5600     0.3720 hc         1 WWT       0.038367
     19 H021       -44.8450   -32.1960    -0.9020 hc         1 WWT       0.040200
     20 H022       -43.9390   -32.3580     0.5970 hc         1 WWT       0.040200
     21 H032       -44.2280   -29.9770    -0.0760 h1         1 WWT       0.058700
     22 H031       -45.9890   -30.1520    -0.0290 h1         1 WWT       0.058700
     23 H081       -43.6760   -29.9110     4.0410 ha         1 WWT       0.127000
     24 H091       -43.3220   -29.4280     6.4350 h4         1 WWT       0.027100
     25 H041       -44.1210   -30.0960     2.3030 hn         1 WWT       0.310500
     26 H121       -47.8840   -28.5760     7.9360 hn         1 WWT       0.381000
     27 H141       -50.4190   -28.8220     5.4370 ho         1 WWT       0.515000
     28 C05        -46.1350   -29.9310     2.6380 c          1 WWT       0.615700
@<TRIPOS>BOND
     1     1     3 ar  
     2     1     7 ar  
     3     1    13 1   
     4     2    12 1   
     5     2    13 2   
     6     2    15 1   
     7     3    11 ar  
     8     3    12 1   
     9     4     5 1   
    10     4    16 1   
    11     4    17 1   
    12     4    18 1   
    13     5     6 1   
    14     5    19 1   
    15     5    20 1   
    16     6    10 1   
    17     6    21 1   
    18     6    22 1   
    19     7     8 ar  
    20     7    28 1   
    21     8     9 ar  
    22     8    23 1   
    23     9    11 ar  
    24     9    24 1   
    25    10    25 1   
    26    10    28 1   
    27    12    26 1   
    28    14    28 2   
    29    15    27 1   
@<TRIPOS>SUBSTRUCTURE
     1 WWT         1 TEMP              0 ****  ****    0 ROOT
