@<TRIPOS>MOLECULE
WWT
   28    29     1     0     0
SMALL
abcg2


@<TRIPOS>ATOM
      1 C16        -46.7140   -29.3480     4.8540 ca         1 WWT       0.104400
      2 C13        -48.5970   -29.5310     5.8360 cc         1 WWT       0.644100
      3 C11        -46.4830   -29.0800     6.2270 ca         1 WWT       0.343500
      4 C01        -46.6450   -32.5140     0.8030 c3         1 WWT      -0.089100
      5 C02        -45.1980   -32.2430     0.4040 c3         1 WWT      -0.097400
      6 C03        -44.7740   -30.7890     0.6090 c3         1 WWT       0.100000
      7 C07        -45.6130   -29.3190     4.0030 ca         1 WWT      -0.068600
      8 C08        -44.3810   -29.0160     4.5960 ca         1 WWT      -0.159000
      9 C09        -44.2870   -28.7560     5.9600 ca         1 WWT       0.334900
     10 N04        -44.8200   -30.3870     2.0070 ns         1 WWT      -0.505900
     11 N10        -45.3350   -28.7870     6.8010 nb         1 WWT      -0.649000
     12 N12        -47.7220   -29.2040     6.8280 na         1 WWT      -0.437300
     13 N15        -48.0560   -29.6300     4.6470 nd         1 WWT      -0.632100
     14 O06        -46.6330   -29.0160     1.8710 o          1 WWT      -0.576100
     15 O14        -49.8730   -29.7140     6.1440 oh         1 WWT      -0.602600
     16 H012       -46.9030   -33.5640     0.6490 hc         1 WWT       0.038367
     17 H013       -46.8140   -32.2810     1.8560 hc         1 WWT       0.038367
     18 H011       -47.3340   -31.9060     0.2120 hc         1 WWT       0.038367
     19 H021       -45.0480   -32.4850    -0.6520 hc         1 WWT       0.040200
     20 H022       -44.5240   -32.8930     0.9720 hc         1 WWT       0.040200
     21 H032       -43.7550   -30.6400     0.2430 h1         1 WWT       0.058700
     22 H031       -45.4320   -30.1180     0.0590 h1         1 WWT       0.058700
     23 H081       -43.4870   -28.9630     3.9890 ha         1 WWT       0.127000
     24 H091       -43.3280   -28.5100     6.3980 h4         1 WWT       0.027100
     25 H041       -44.1730   -30.8310     2.6410 hn         1 WWT       0.310500
     26 H121       -47.9430   -29.0830     7.8060 hn         1 WWT       0.381000
     27 H141       -50.3670   -29.9330     5.3360 ho         1 WWT       0.515000
     28 C05        -45.7450   -29.5610     2.5290 c          1 WWT       0.615700
@<TRIPOS>BOND
     1     1     3 ar  
     2     1     7 ar  
     3     1    13 1   
     4     2    12 1   
     5     2    13 2   
     6     2    15 1   
     7     3    11 ar  
     8     3    12 1   
     9     4     5 1   
    10     4    16 1   
    11     4    17 1   
    12     4    18 1   
    13     5     6 1   
    14     5    19 1   
    15     5    20 1   
    16     6    10 1   
    17     6    21 1   
    18     6    22 1   
    19     7     8 ar  
    20     7    28 1   
    21     8     9 ar  
    22     8    23 1   
    23     9    11 ar  
    24     9    24 1   
    25    10    25 1   
    26    10    28 1   
    27    12    26 1   
    28    14    28 2   
    29    15    27 1   
@<TRIPOS>SUBSTRUCTURE
     1 WWT         1 TEMP              0 ****  ****    0 ROOT
