@<TRIPOS>MOLECULE
WWU
   99   104     1     0     0
SMALL
abcg2


@<TRIPOS>ATOM
      1 C1          11.9890   -18.7640     9.3890 ca         1 WWU      -0.121600
      2 C2          12.5140   -17.5790     9.9430 ca         1 WWU      -0.142000
      3 C3          13.8140   -17.5110    10.4190 ca         1 WWU       0.136100
      4 C4          13.5720   -15.2510    11.1670 c3         1 WWU       0.148900
      5 C5          14.5940   -18.6690    10.3070 ca         1 WWU      -0.085200
      6 C7          17.6230   -17.3920     9.7970 c2         1 WWU      -0.235200
      7 C8          17.3510   -17.6960     8.5370 c2         1 WWU      -0.232200
      8 C11         17.5240   -13.9680     7.8710 ca         1 WWU       0.145100
      9 C12         15.1280   -13.9390     7.6670 c3         1 WWU       0.167600
     10 C15         17.6180   -12.6260     8.2100 ca         1 WWU      -0.150000
     11 C16         18.8510   -12.0390     8.5620 ca         1 WWU      -0.127600
     12 C17         18.8230   -10.5830     8.9110 c          1 WWU       0.613700
     13 C18         20.0210   -12.7890     8.6060 ca         1 WWU      -0.064000
     14 C19         19.9350   -14.1420     8.2790 ca         1 WWU       0.103400
     15 C23         21.9380   -20.2890     7.1880 cc         1 WWU       0.310300
     16 C24         20.8320   -20.3060     6.1880 c3         1 WWU      -0.117700
     17 C27         24.6330   -21.9470     8.9140 c3         1 WWU      -0.128400
     18 C30         19.2760   -22.2350    10.1130 cc         1 WWU       0.020500
     19 C31         20.2620   -21.7460    10.9280 cd         1 WWU       0.309300
     20 C32         20.2870   -20.6150    11.9000 c3         1 WWU      -0.116700
     21 C33         20.7850   -19.3040    11.2750 c3         1 WWU      -0.093100
     22 C34         21.0930   -23.3950     9.8280 cc         1 WWU       0.489300
     23 C35         21.9360   -24.4560     9.2390 c3         1 WWU      -0.128400
     24 C36         14.0760   -19.8520     9.7500 ca         1 WWU       0.100400
     25 C37         12.7620   -19.9150     9.2900 ca         1 WWU      -0.062000
     26 O8          10.0400   -17.6250     8.6190 o          1 WWU      -0.609100
     27 C           10.5810   -18.7010     8.8880 c          1 WWU       0.613700
     28 N            9.9310   -19.8740     8.7350 nt         1 WWU      -0.605000
     29 O           14.3860   -16.4100    10.9710 os         1 WWU      -0.361100
     30 N9          15.0560   -20.8350     9.7370 nc         1 WWU      -0.571100
     31 C28         16.1200   -20.2620    10.2460 cd         1 WWU       0.495400
     32 N7          17.3700   -20.8190    10.4140 ns         1 WWU      -0.419400
     33 C29         17.8760   -21.9410     9.7900 c          1 WWU       0.553600
     34 O7          17.2370   -22.6340     9.0160 o          1 WWU      -0.503100
     35 O6          19.8150   -23.2970     9.4150 os         1 WWU      -0.228000
     36 N8          21.4070   -22.5020    10.7220 nd         1 WWU      -0.705000
     37 N1          15.9090   -18.9550    10.6410 na         1 WWU      -0.207600
     38 C9          18.0010   -17.0810     7.3360 c3         1 WWU       0.117800
     39 N2          18.9770   -16.0500     7.6570 na         1 WWU      -0.209600
     40 C20         20.3180   -16.2210     7.9340 cc         1 WWU       0.498400
     41 N5          20.8720   -17.4770     7.8130 ns         1 WWU      -0.420400
     42 O5          22.8000   -17.2260     9.0350 o          1 WWU      -0.501100
     43 C22         22.3880   -19.3120     8.0320 cd         1 WWU       0.020500
     44 O4          23.4460   -19.8410     8.7440 os         1 WWU      -0.228000
     45 C26         23.5760   -21.1100     8.3100 cd         1 WWU       0.490300
     46 N6          22.7120   -21.4230     7.3890 nc         1 WWU      -0.706000
     47 C25         19.5360   -20.9000     6.7580 c3         1 WWU      -0.092100
     48 N4          20.9250   -15.1130     8.2860 nd         1 WWU      -0.571100
     49 C10         18.7090   -14.7140     7.9000 ca         1 WWU      -0.087200
     50 O3          17.7750   -10.0160     9.2300 o          1 WWU      -0.616100
     51 N3          19.9980    -9.9200     8.8660 nt         1 WWU      -0.603000
     52 C13         14.0320   -14.9430     7.3810 c3         1 WWU      -0.088400
     53 C14         14.0460   -15.4570     5.9540 c3         1 WWU       0.166600
     54 O2          12.9150   -16.3200     5.7860 oh         1 WWU      -0.661000
     55 H1          11.8710   -16.7140     9.9820 ha         1 WWU       0.144000
     56 H2          14.2160   -14.5180    11.6450 h1         1 WWU       0.047367
     57 H3          13.2120   -14.8590    10.2140 h1         1 WWU       0.047367
     58 H4          12.7230   -15.4810    11.8140 h1         1 WWU       0.047367
     59 H5          17.6600   -18.4470    11.6650 h1         1 WWU       0.078200
     60 H6          16.4590   -17.1950    11.5730 h1         1 WWU       0.078200
     61 H7          18.3810   -16.6540    10.0380 ha         1 WWU       0.196000
     62 H8          16.5900   -18.4290     8.2940 ha         1 WWU       0.197000
     63 H9          15.0890   -13.0970     6.9700 h1         1 WWU       0.044200
     64 H10         15.0390   -13.5520     8.6850 h1         1 WWU       0.044200
     65 H11         16.7400   -12.0000     8.2130 ha         1 WWU       0.143000
     66 H12         20.9680   -12.3710     8.9180 ha         1 WWU       0.133000
     67 H13         21.1650   -20.9100     5.3420 hc         1 WWU       0.060700
     68 H14         20.6530   -19.3030     5.7970 hc         1 WWU       0.060700
     69 H15         24.6960   -22.8930     8.3830 hc         1 WWU       0.074033
     70 H16         25.5960   -21.4360     8.8680 hc         1 WWU       0.074033
     71 H17         24.4020   -22.1410     9.9630 hc         1 WWU       0.074033
     72 H18         19.3040   -20.4720    12.3550 hc         1 WWU       0.059700
     73 H19         20.9530   -20.9030    12.7160 hc         1 WWU       0.059700
     74 H20         20.7960   -18.5110    12.0230 hc         1 WWU       0.045700
     75 H21         21.7970   -19.4280    10.8900 hc         1 WWU       0.045700
     76 H22         20.1400   -18.9910    10.4520 hc         1 WWU       0.045700
     77 H23         21.4340   -25.4220     9.3080 hc         1 WWU       0.074700
     78 H24         22.1210   -24.2420     8.1840 hc         1 WWU       0.074700
     79 H25         22.8860   -24.4990     9.7640 hc         1 WWU       0.074700
     80 H26         12.3930   -20.8260     8.8410 ha         1 WWU       0.133000
     81 H27          8.9770   -19.8600     8.4130 hn         1 WWU       0.316500
     82 H28         10.3060   -20.7460     9.0680 hn         1 WWU       0.316500
     83 H29         18.0080   -20.3030    10.9970 hn         1 WWU       0.331500
     84 H30         17.2410   -16.6320     6.7000 h1         1 WWU       0.075200
     85 H31         18.4760   -17.8490     6.7230 h1         1 WWU       0.075200
     86 H32         20.2810   -18.1780     7.3960 hn         1 WWU       0.331500
     87 H33         18.7590   -20.9140     5.9940 hc         1 WWU       0.045033
     88 H34         19.7010   -21.9210     7.1020 hc         1 WWU       0.045033
     89 H35         19.1710   -20.3150     7.6050 hc         1 WWU       0.045033
     90 H36         20.0040    -8.9340     9.0750 hn         1 WWU       0.317000
     91 H37         20.8320   -10.3250     8.4780 hn         1 WWU       0.317000
     92 H38         13.0720   -14.4590     7.5770 hc         1 WWU       0.070700
     93 H39         14.1210   -15.7850     8.0710 hc         1 WWU       0.070700
     94 H40         14.9710   -16.0040     5.7530 h1         1 WWU       0.021700
     95 H41         13.9890   -14.6150     5.2530 h1         1 WWU       0.021700
     96 H42         12.9650   -16.7170     4.9080 ho         1 WWU       0.442000
     97 C6          16.9350   -17.9820    10.9930 c3         1 WWU       0.113800
     98 O1          16.3850   -14.6170     7.5290 os         1 WWU      -0.367100
     99 C21         22.0680   -17.9170     8.3460 c          1 WWU       0.554600
@<TRIPOS>BOND
     1     1     2 ar  
     2     1    25 ar  
     3     1    27 1   
     4     2     3 ar  
     5     2    55 1   
     6     3     5 ar  
     7     3    29 1   
     8     4    29 1   
     9     4    56 1   
    10     4    57 1   
    11     4    58 1   
    12     5    24 ar  
    13     5    37 1   
    14     6     7 2   
    15     6    61 1   
    16     6    97 1   
    17     7    38 1   
    18     7    62 1   
    19     8    10 ar  
    20     8    49 ar  
    21     8    98 1   
    22     9    52 1   
    23     9    63 1   
    24     9    64 1   
    25     9    98 1   
    26    10    11 ar  
    27    10    65 1   
    28    11    12 1   
    29    11    13 ar  
    30    12    50 2   
    31    12    51 1   
    32    13    14 ar  
    33    13    66 1   
    34    14    48 1   
    35    14    49 ar  
    36    15    16 1   
    37    15    43 2   
    38    15    46 1   
    39    16    47 1   
    40    16    67 1   
    41    16    68 1   
    42    17    45 1   
    43    17    69 1   
    44    17    70 1   
    45    17    71 1   
    46    18    19 2   
    47    18    33 1   
    48    18    35 1   
    49    19    20 1   
    50    19    36 1   
    51    20    21 1   
    52    20    72 1   
    53    20    73 1   
    54    21    74 1   
    55    21    75 1   
    56    21    76 1   
    57    22    23 1   
    58    22    35 1   
    59    22    36 2   
    60    23    77 1   
    61    23    78 1   
    62    23    79 1   
    63    24    25 ar  
    64    24    30 1   
    65    25    80 1   
    66    26    27 2   
    67    27    28 1   
    68    28    81 1   
    69    28    82 1   
    70    30    31 2   
    71    31    32 1   
    72    31    37 1   
    73    32    33 1   
    74    32    83 1   
    75    33    34 2   
    76    37    97 1   
    77    38    39 1   
    78    38    84 1   
    79    38    85 1   
    80    39    40 1   
    81    39    49 1   
    82    40    41 1   
    83    40    48 2   
    84    41    86 1   
    85    41    99 1   
    86    42    99 2   
    87    43    44 1   
    88    43    99 1   
    89    44    45 1   
    90    45    46 2   
    91    47    87 1   
    92    47    88 1   
    93    47    89 1   
    94    51    90 1   
    95    51    91 1   
    96    52    53 1   
    97    52    92 1   
    98    52    93 1   
    99    53    54 1   
   100    53    94 1   
   101    53    95 1   
   102    54    96 1   
   103    59    97 1   
   104    60    97 1   
@<TRIPOS>SUBSTRUCTURE
     1 WWU         1 TEMP              0 ****  ****    0 ROOT
