@<TRIPOS>MOLECULE
WWU
   99   104     1     0     0
SMALL
No Charge or Current Charge


@<TRIPOS>ATOM
      1 C1          11.7990   -19.0310     9.5110 ca         1 WWU      -0.121600
      2 C2          12.2930   -17.7830     9.9780 ca         1 WWU      -0.142000
      3 C3          13.6440   -17.6310    10.3790 ca         1 WWU       0.136100
      4 C4          13.3080   -15.2630    11.0210 c3         1 WWU       0.148900
      5 C5          14.4850   -18.7630    10.2980 ca         1 WWU      -0.085200
      6 C7          17.5070   -17.2880     9.7470 c2         1 WWU      -0.235200
      7 C8          17.3210   -17.6080     8.4480 c2         1 WWU      -0.232200
      8 C11         17.6820   -13.9560     7.9060 ca         1 WWU       0.145100
      9 C12         15.2150   -13.8680     7.7420 c3         1 WWU       0.167600
     10 C15         17.7920   -12.5950     8.2820 ca         1 WWU      -0.150000
     11 C16         19.0490   -12.0280     8.6360 ca         1 WWU      -0.127600
     12 C17         19.1270   -10.5670     9.0320 c          1 WWU       0.613700
     13 C18         20.2030   -12.8570     8.6200 ca         1 WWU      -0.064000
     14 C19         20.0730   -14.2000     8.2460 ca         1 WWU       0.103400
     15 C23         21.9220   -20.3280     7.1370 cc         1 WWU       0.310300
     16 C24         20.6550   -20.2680     6.3150 c3         1 WWU      -0.117700
     17 C27         24.7390   -22.1850     8.3180 c3         1 WWU      -0.128400
     18 C30         19.2550   -22.3180    10.2630 cc         1 WWU       0.020500
     19 C31         20.1960   -21.5900    10.9670 cd         1 WWU       0.309300
     20 C32         20.0910   -20.3180    11.7780 c3         1 WWU      -0.116700
     21 C33         20.4170   -19.0480    10.9650 c3         1 WWU      -0.093100
     22 C34         21.1510   -23.3100    10.1520 cc         1 WWU       0.489300
     23 C35         22.1280   -24.3700     9.7540 c3         1 WWU      -0.128400
     24 C36         14.0190   -19.9680     9.8500 ca         1 WWU       0.100400
     25 C37         12.6870   -20.1340     9.4510 ca         1 WWU      -0.062000
     26 O8           9.5630   -18.2210     9.1470 o          1 WWU      -0.609100
     27 C           10.3470   -19.1540     9.0920 c          1 WWU       0.613700
     28 N            9.9050   -20.3480     8.6410 nt         1 WWU      -0.605000
     29 O           14.1370   -16.4250    10.8410 os         1 WWU      -0.361100
     30 N9          15.0030   -20.9390     9.8410 nc         1 WWU      -0.571100
     31 C28         16.0820   -20.2790    10.2880 cd         1 WWU       0.495400
     32 N7          17.3470   -20.8070    10.4070 ns         1 WWU      -0.419400
     33 C29         17.8110   -22.0440    10.0030 c          1 WWU       0.553600
     34 O7          17.1010   -22.8600     9.4320 o          1 WWU      -0.503100
     35 O6          19.8560   -23.4350     9.7610 os         1 WWU      -0.228000
     36 N8          21.4090   -22.2390    10.8810 nd         1 WWU      -0.705000
     37 N1          15.8190   -18.9360    10.6110 na         1 WWU      -0.207600
     38 C9          18.0500   -17.0230     7.2470 c3         1 WWU       0.117800
     39 N2          19.1010   -16.0460     7.6000 na         1 WWU      -0.209600
     40 C20         20.4570   -16.2810     7.8300 cc         1 WWU       0.498400
     41 N5          21.0430   -17.5220     7.7000 ns         1 WWU      -0.420400
     42 O5          23.0970   -17.1840     8.6480 o          1 WWU      -0.501100
     43 C22         22.6190   -19.3690     7.8400 cd         1 WWU       0.020500
     44 O4          23.7610   -19.9100     8.3560 os         1 WWU      -0.228000
     45 C26         23.6670   -21.2070     7.9490 cd         1 WWU       0.490300
     46 N6          22.6050   -21.5070     7.2180 nc         1 WWU      -0.706000
     47 C25         19.3790   -20.6220     7.1090 c3         1 WWU      -0.092100
     48 N4          21.0840   -15.1570     8.2110 nd         1 WWU      -0.571100
     49 C10         18.8620   -14.7240     7.8880 ca         1 WWU      -0.087200
     50 O3          18.1490    -9.8380     9.0630 o          1 WWU      -0.616100
     51 N3          20.3310   -10.0520     9.3630 nt         1 WWU      -0.603000
     52 C13         14.1050   -14.8580     7.3370 c3         1 WWU      -0.088400
     53 C14         14.1620   -15.2690     5.8540 c3         1 WWU       0.166600
     54 O2          13.0590   -16.1290     5.5500 oh         1 WWU      -0.661000
     55 H1          11.6120   -16.9390    10.0220 ha         1 WWU       0.144000
     56 H2          13.9060   -14.4250    11.4010 h1         1 WWU       0.047367
     57 H3          12.8550   -14.9510    10.0710 h1         1 WWU       0.047367
     58 H4          12.5060   -15.4640    11.7430 h1         1 WWU       0.047367
     59 H5          17.5280   -18.2920    11.6440 h1         1 WWU       0.078200
     60 H6          16.2880   -17.0760    11.5120 h1         1 WWU       0.078200
     61 H7          18.2400   -16.5300    10.0320 ha         1 WWU       0.196000
     62 H8          16.5760   -18.3510     8.1580 ha         1 WWU       0.197000
     63 H9          15.1590   -12.9710     7.1110 h1         1 WWU       0.044200
     64 H10         15.0720   -13.5710     8.7890 h1         1 WWU       0.044200
     65 H11         16.9090   -11.9630     8.3030 ha         1 WWU       0.143000
     66 H12         21.1840   -12.4830     8.8960 ha         1 WWU       0.133000
     67 H13         20.7400   -20.9810     5.4840 hc         1 WWU       0.060700
     68 H14         20.5440   -19.2920     5.8310 hc         1 WWU       0.060700
     69 H15         24.5810   -23.1520     7.8290 hc         1 WWU       0.074033
     70 H16         25.7230   -21.8100     8.0170 hc         1 WWU       0.074033
     71 H17         24.7550   -22.3480     9.4010 hc         1 WWU       0.074033
     72 H18         19.1090   -20.2260    12.2550 hc         1 WWU       0.059700
     73 H19         20.8000   -20.3710    12.6140 hc         1 WWU       0.059700
     74 H20         20.2880   -18.1510    11.5840 hc         1 WWU       0.045700
     75 H21         21.4580   -19.0750    10.6220 hc         1 WWU       0.045700
     76 H22         19.7670   -18.9580    10.0890 hc         1 WWU       0.045700
     77 H23         21.7410   -25.3630    10.0070 hc         1 WWU       0.074700
     78 H24         22.3090   -24.3360     8.6740 hc         1 WWU       0.074700
     79 H25         23.0850   -24.2350    10.2690 hc         1 WWU       0.074700
     80 H26         12.3650   -21.1110     9.1020 ha         1 WWU       0.133000
     81 H27          8.9400   -20.4390     8.3600 hn         1 WWU       0.316500
     82 H28         10.5300   -21.1360     8.5840 hn         1 WWU       0.316500
     83 H29         18.0460   -20.2020    10.8010 hn         1 WWU       0.331500
     84 H30         17.3310   -16.5480     6.5690 h1         1 WWU       0.075200
     85 H31         18.5040   -17.8360     6.6700 h1         1 WWU       0.075200
     86 H32         20.4550   -18.2460     7.3250 hn         1 WWU       0.331500
     87 H33         18.4910   -20.5230     6.4730 hc         1 WWU       0.045033
     88 H34         19.4280   -21.6590     7.4600 hc         1 WWU       0.045033
     89 H35         19.2540   -19.9680     7.9780 hc         1 WWU       0.045033
     90 H36         20.3920    -9.0800     9.6260 hn         1 WWU       0.317000
     91 H37         21.1570   -10.6290     9.3440 hn         1 WWU       0.317000
     92 H38         13.1330   -14.3950     7.5440 hc         1 WWU       0.070700
     93 H39         14.1750   -15.7530     7.9660 hc         1 WWU       0.070700
     94 H40         15.1110   -15.7830     5.6510 h1         1 WWU       0.021700
     95 H41         14.1240   -14.3680     5.2270 h1         1 WWU       0.021700
     96 H42         13.1320   -16.3620     4.5980 ho         1 WWU       0.442000
     97 C6          16.7870   -17.8740    10.9520 c3         1 WWU       0.113800
     98 O1          16.4740   -14.5370     7.5760 os         1 WWU      -0.367100
     99 C21         22.3020   -17.9290     8.0920 c          1 WWU       0.554600
@<TRIPOS>BOND
     1     1     2 ar  
     2     1    25 ar  
     3     1    27 1   
     4     2     3 ar  
     5     2    55 1   
     6     3     5 ar  
     7     3    29 1   
     8     4    29 1   
     9     4    56 1   
    10     4    57 1   
    11     4    58 1   
    12     5    24 ar  
    13     5    37 1   
    14     6     7 2   
    15     6    61 1   
    16     6    97 1   
    17     7    38 1   
    18     7    62 1   
    19     8    10 ar  
    20     8    49 ar  
    21     8    98 1   
    22     9    52 1   
    23     9    63 1   
    24     9    64 1   
    25     9    98 1   
    26    10    11 ar  
    27    10    65 1   
    28    11    12 1   
    29    11    13 ar  
    30    12    50 2   
    31    12    51 1   
    32    13    14 ar  
    33    13    66 1   
    34    14    48 1   
    35    14    49 ar  
    36    15    16 1   
    37    15    43 2   
    38    15    46 1   
    39    16    47 1   
    40    16    67 1   
    41    16    68 1   
    42    17    45 1   
    43    17    69 1   
    44    17    70 1   
    45    17    71 1   
    46    18    19 2   
    47    18    33 1   
    48    18    35 1   
    49    19    20 1   
    50    19    36 1   
    51    20    21 1   
    52    20    72 1   
    53    20    73 1   
    54    21    74 1   
    55    21    75 1   
    56    21    76 1   
    57    22    23 1   
    58    22    35 1   
    59    22    36 2   
    60    23    77 1   
    61    23    78 1   
    62    23    79 1   
    63    24    25 ar  
    64    24    30 1   
    65    25    80 1   
    66    26    27 2   
    67    27    28 1   
    68    28    81 1   
    69    28    82 1   
    70    30    31 2   
    71    31    32 1   
    72    31    37 1   
    73    32    33 1   
    74    32    83 1   
    75    33    34 2   
    76    37    97 1   
    77    38    39 1   
    78    38    84 1   
    79    38    85 1   
    80    39    40 1   
    81    39    49 1   
    82    40    41 1   
    83    40    48 2   
    84    41    86 1   
    85    41    99 1   
    86    42    99 2   
    87    43    44 1   
    88    43    99 1   
    89    44    45 1   
    90    45    46 2   
    91    47    87 1   
    92    47    88 1   
    93    47    89 1   
    94    51    90 1   
    95    51    91 1   
    96    52    53 1   
    97    52    92 1   
    98    52    93 1   
    99    53    54 1   
   100    53    94 1   
   101    53    95 1   
   102    54    96 1   
   103    59    97 1   
   104    60    97 1   
@<TRIPOS>SUBSTRUCTURE
     1 WWU         1 TEMP              0 ****  ****    0 ROOT
