@<TRIPOS>MOLECULE
WWV
   42    43     1     0     0
SMALL
No Charge or Current Charge


@<TRIPOS>ATOM
      1 C1          -4.0520     0.5940    -0.1400 ca         1 WWV      -0.318500
      2 N1          -6.1190     1.0910     1.4450 n8         1 WWV      -1.005100
      3 O1          -6.2780     1.8970    -0.8760 o          1 WWV      -0.547000
      4 S1          -5.8380     0.7230    -0.1220 sy         1 WWV       1.133600
      5 C2          -3.4270    -0.6550     0.0410 ca         1 WWV       0.026000
      6 O2          -6.4380    -0.5990    -0.2830 o          1 WWV      -0.547000
      7 C3          -2.0240    -0.7480     0.0250 ca         1 WWV      -0.186000
      8 C4          -1.2290     0.4020    -0.1700 ca         1 WWV       0.058000
      9 C5          -1.8660     1.6420    -0.3550 ca         1 WWV      -0.186000
     10 C6          -3.2680     1.7450    -0.3400 ca         1 WWV       0.026000
     11 N7           0.1910     0.3840    -0.2020 ns         1 WWV      -0.163000
     12 C8           1.1170    -0.6240     0.0170 c          1 WWV       0.665100
     13 O8           0.8300    -1.7740     0.3290 o          1 WWV      -0.596100
     14 N9           2.4160    -0.1610    -0.1380 ns         1 WWV      -0.183000
     15 C10          3.6800    -0.8150    -0.0650 ca         1 WWV      -0.036000
     16 C11          4.8640    -0.0440     0.1110 ca         1 WWV      -0.082300
     17 C12          6.1120    -0.7050     0.1590 ca         1 WWV      -0.100000
     18 C13          6.1980    -2.0990     0.0360 ca         1 WWV      -0.108000
     19 C14          5.0350    -2.8560    -0.1450 ca         1 WWV      -0.102000
     20 C15          3.7850    -2.2190    -0.1990 ca         1 WWV      -0.092000
     21 C16          4.8360     1.4910     0.2560 c3         1 WWV      -0.017400
     22 C17          5.4290     1.9450     1.6100 c3         1 WWV      -0.085600
     23 C18          5.5430     2.1780    -0.9330 c3         1 WWV      -0.085600
     24 HN1         -5.2580     0.7870     1.8930 hn         1 WWV       0.471500
     25 H2          -4.0190    -1.5570     0.1910 ha         1 WWV       0.137000
     26 H12          7.0280    -0.1350     0.2920 ha         1 WWV       0.115000
     27 H3          -1.5790    -1.7280     0.1610 ha         1 WWV       0.135500
     28 H13          7.1680    -2.5910     0.0750 ha         1 WWV       0.116000
     29 H14          5.1000    -3.9370    -0.2510 ha         1 WWV       0.119000
     30 H5          -1.2730     2.5400    -0.5100 ha         1 WWV       0.135500
     31 H15          2.9080    -2.8360    -0.3660 ha         1 WWV       0.127000
     32 H6          -3.7350     2.7190    -0.4820 ha         1 WWV       0.137000
     33 H16          3.8070     1.8630     0.2490 hc         1 WWV       0.044700
     34 HN7          0.6000     1.2790    -0.4330 hn         1 WWV       0.149000
     35 H17          4.9090     1.4520     2.4400 hc         1 WWV       0.036533
     36 H17A         6.4960     1.7060     1.6810 hc         1 WWV       0.036533
     37 H17B         5.3160     3.0290     1.7350 hc         1 WWV       0.036533
     38 H18          6.6090     1.9250    -0.9630 hc         1 WWV       0.036533
     39 H18A         5.0890     1.8640    -1.8810 hc         1 WWV       0.036533
     40 H18B         5.4540     3.2680    -0.8590 hc         1 WWV       0.036533
     41 HN9          2.4810     0.8250    -0.3540 hn         1 WWV       0.152000
     42 HN1A        -6.7910     0.3680     1.6930 hn         1 WWV       0.471500
@<TRIPOS>BOND
     1     1     4 1   
     2     1     5 ar  
     3     1    10 ar  
     4     2     4 1   
     5     2    24 1   
     6     2    42 1   
     7     3     4 2   
     8     4     6 2   
     9     5     7 ar  
    10     5    25 1   
    11     7     8 ar  
    12     7    27 1   
    13     8     9 ar  
    14     8    11 1   
    15     9    10 ar  
    16     9    30 1   
    17    10    32 1   
    18    11    12 1   
    19    11    34 1   
    20    12    13 2   
    21    12    14 1   
    22    14    15 1   
    23    14    41 1   
    24    15    16 ar  
    25    15    20 ar  
    26    16    17 ar  
    27    16    21 1   
    28    17    18 ar  
    29    17    26 1   
    30    18    19 ar  
    31    18    28 1   
    32    19    20 ar  
    33    19    29 1   
    34    20    31 1   
    35    21    22 1   
    36    21    23 1   
    37    21    33 1   
    38    22    35 1   
    39    22    36 1   
    40    22    37 1   
    41    23    38 1   
    42    23    39 1   
    43    23    40 1   
@<TRIPOS>SUBSTRUCTURE
     1 WWV         1 TEMP              0 ****  ****    0 ROOT
