@<TRIPOS>MOLECULE
WWV
   42    43     1     0     0
SMALL
abcg2


@<TRIPOS>ATOM
      1 C1          -3.8100     0.3750     0.0990 ca         1 WWV      -0.318500
      2 N1          -5.6960     1.7580     1.3250 n8         1 WWV      -1.005100
      3 O1          -6.2670     0.6570    -0.8220 o          1 WWV      -0.547000
      4 S1          -5.5410     0.3880     0.4130 sy         1 WWV       1.133600
      5 C2          -3.0100    -0.6220     0.6310 ca         1 WWV       0.026000
      6 O2          -5.8720    -0.8260     1.1490 o          1 WWV      -0.547000
      7 C3          -1.6500    -0.6500     0.3670 ca         1 WWV      -0.186000
      8 C4          -1.0770     0.3340    -0.4450 ca         1 WWV       0.058000
      9 C5          -1.9030     1.3370    -0.9760 ca         1 WWV      -0.186000
     10 C6          -3.2540     1.3590    -0.7120 ca         1 WWV       0.026000
     11 N7           0.2650     0.4040    -0.7760 ns         1 WWV      -0.163000
     12 C8           1.2880    -0.4250    -0.3750 c          1 WWV       0.665100
     13 O8           1.1370    -1.3830     0.3610 o          1 WWV      -0.596100
     14 N9           2.4950    -0.0680    -0.8920 ns         1 WWV      -0.183000
     15 C10          3.6910    -0.7400    -0.5480 ca         1 WWV      -0.036000
     16 C11          4.7070    -0.0670     0.1370 ca         1 WWV      -0.082300
     17 C12          5.8830    -0.7700     0.4060 ca         1 WWV      -0.100000
     18 C13          6.0370    -2.0980     0.0430 ca         1 WWV      -0.108000
     19 C14          5.0090    -2.7570    -0.6200 ca         1 WWV      -0.102000
     20 C15          3.8450    -2.0730    -0.9220 ca         1 WWV      -0.092000
     21 C16          4.5710     1.3830     0.5440 c3         1 WWV      -0.017400
     22 C17          5.0280     1.6370     1.9800 c3         1 WWV      -0.085600
     23 C18          5.3280     2.2830    -0.4350 c3         1 WWV      -0.085600
     24 HN1         -5.3310     1.6450     2.2650 hn         1 WWV       0.471500
     25 H2          -3.4330    -1.3930     1.2610 ha         1 WWV       0.137000
     26 H12          6.6950    -0.2710     0.9200 ha         1 WWV       0.115000
     27 H3          -1.0530    -1.4360     0.7950 ha         1 WWV       0.135500
     28 H13          6.9580    -2.6170     0.2760 ha         1 WWV       0.116000
     29 H14          5.1200    -3.7930    -0.9120 ha         1 WWV       0.119000
     30 H5          -1.4740     2.1070    -1.6050 ha         1 WWV       0.135500
     31 H15          3.0510    -2.5680    -1.4660 ha         1 WWV       0.127000
     32 H6          -3.8630     2.1470    -1.1360 ha         1 WWV       0.137000
     33 H16          3.5130     1.6540     0.4960 hc         1 WWV       0.044700
     34 HN7          0.5090     1.1780    -1.3770 hn         1 WWV       0.149000
     35 H17          4.4990     0.9990     2.6880 hc         1 WWV       0.036533
     36 H17A         6.0980     1.4680     2.1060 hc         1 WWV       0.036533
     37 H17B         4.8310     2.6750     2.2550 hc         1 WWV       0.036533
     38 H18          6.4020     2.0950    -0.3860 hc         1 WWV       0.036533
     39 H18A         5.0080     2.1190    -1.4650 hc         1 WWV       0.036533
     40 H18B         5.1620     3.3360    -0.1990 hc         1 WWV       0.036533
     41 HN9          2.5720     0.7790    -1.4350 hn         1 WWV       0.152000
     42 HN1A        -6.6610     2.0760     1.3590 hn         1 WWV       0.471500
@<TRIPOS>BOND
     1     1     4 1   
     2     1     5 ar  
     3     1    10 ar  
     4     2     4 1   
     5     2    24 1   
     6     2    42 1   
     7     3     4 2   
     8     4     6 2   
     9     5     7 ar  
    10     5    25 1   
    11     7     8 ar  
    12     7    27 1   
    13     8     9 ar  
    14     8    11 1   
    15     9    10 ar  
    16     9    30 1   
    17    10    32 1   
    18    11    12 1   
    19    11    34 1   
    20    12    13 2   
    21    12    14 1   
    22    14    15 1   
    23    14    41 1   
    24    15    16 ar  
    25    15    20 ar  
    26    16    17 ar  
    27    16    21 1   
    28    17    18 ar  
    29    17    26 1   
    30    18    19 ar  
    31    18    28 1   
    32    19    20 ar  
    33    19    29 1   
    34    20    31 1   
    35    21    22 1   
    36    21    23 1   
    37    21    33 1   
    38    22    35 1   
    39    22    36 1   
    40    22    37 1   
    41    23    38 1   
    42    23    39 1   
    43    23    40 1   
@<TRIPOS>SUBSTRUCTURE
     1 WWV         1 TEMP              0 ****  ****    0 ROOT
