@<TRIPOS>MOLECULE
WWZ
   33    34     1     0     0
SMALL
abcg2


@<TRIPOS>ATOM
      1 C1          -3.7240     0.2030    -0.0170 ca         1 WWZ      -0.311500
      2 N1          -5.7650     0.0880     1.6640 n8         1 WWZ      -0.998100
      3 O1          -6.1410     0.7910    -0.8020 o          1 WWZ      -0.546500
      4 S1          -5.4450    -0.1570     0.0580 sy         1 WWZ       1.132600
      5 C2          -2.8070    -0.7620     0.3750 ca         1 WWZ       0.024000
      6 O2          -5.6580    -1.5790    -0.1700 o          1 WWZ      -0.546500
      7 C3          -1.4490    -0.5050     0.3190 ca         1 WWZ      -0.181000
      8 C4          -0.9940     0.7400    -0.1320 ca         1 WWZ       0.055000
      9 C5          -1.9330     1.7040    -0.5190 ca         1 WWZ      -0.181000
     10 C6          -3.2870     1.4420    -0.4680 ca         1 WWZ       0.024000
     11 N7           0.3380     1.1110    -0.2080 ns         1 WWZ      -0.163000
     12 C8           1.4530     0.3160    -0.0850 c          1 WWZ       0.667100
     13 O8           1.4140    -0.8870     0.0860 o          1 WWZ      -0.590100
     14 N9           2.6120     1.0300    -0.1910 ns         1 WWZ      -0.166000
     15 C10          3.9000     0.4860    -0.0760 ca         1 WWZ      -0.039000
     16 C11          4.8690     1.2200     0.6050 ca         1 WWZ      -0.105500
     17 C12          6.1710     0.7560     0.7070 ca         1 WWZ      -0.129500
     18 C13          6.4890    -0.4600     0.1350 ca         1 WWZ       0.157000
     19 F13          7.7460    -0.9230     0.2360 f          1 WWZ      -0.176000
     20 C14          5.5490    -1.2080    -0.5460 ca         1 WWZ      -0.129500
     21 C15          4.2530    -0.7290    -0.6610 ca         1 WWZ      -0.105500
     22 H11          4.6070     2.1660     1.0620 ha         1 WWZ       0.128500
     23 HN1         -5.7740     1.0730     1.9110 hn         1 WWZ       0.470000
     24 H2          -3.1390    -1.7280     0.7300 ha         1 WWZ       0.137500
     25 H12          6.9200     1.3310     1.2350 ha         1 WWZ       0.135500
     26 H3          -0.7610    -1.2740     0.6260 ha         1 WWZ       0.134000
     27 H14          5.8230    -2.1530    -0.9980 ha         1 WWZ       0.135500
     28 H5          -1.5970     2.6700    -0.8740 ha         1 WWZ       0.134000
     29 H15          3.5330    -1.3030    -1.2240 ha         1 WWZ       0.128500
     30 H6          -3.9860     2.2040    -0.7820 ha         1 WWZ       0.137500
     31 HN7          0.4910     2.0790    -0.4480 hn         1 WWZ       0.150000
     32 HN9          2.5590     2.0370    -0.1380 hn         1 WWZ       0.150000
     33 HN1A        -6.6450    -0.3440     1.9320 hn         1 WWZ       0.470000
@<TRIPOS>BOND
     1     1     4 1   
     2     1     5 ar  
     3     1    10 ar  
     4     2     4 1   
     5     2    23 1   
     6     2    33 1   
     7     3     4 2   
     8     4     6 2   
     9     5     7 ar  
    10     5    24 1   
    11     7     8 ar  
    12     7    26 1   
    13     8     9 ar  
    14     8    11 1   
    15     9    10 ar  
    16     9    28 1   
    17    10    30 1   
    18    11    12 1   
    19    11    31 1   
    20    12    13 2   
    21    12    14 1   
    22    14    15 1   
    23    14    32 1   
    24    15    16 ar  
    25    15    21 ar  
    26    16    17 ar  
    27    16    22 1   
    28    17    18 ar  
    29    17    25 1   
    30    18    19 1   
    31    18    20 ar  
    32    20    21 ar  
    33    20    27 1   
    34    21    29 1   
@<TRIPOS>SUBSTRUCTURE
     1 WWZ         1 TEMP              0 ****  ****    0 ROOT
