@<TRIPOS>MOLECULE
WWZ
   33    34     1     0     0
SMALL
No Charge or Current Charge


@<TRIPOS>ATOM
      1 C1          -3.8890     0.2490    -0.0820 ca         1 WWZ      -0.311500
      2 N1          -5.9900    -0.1710     1.4840 n8         1 WWZ      -0.998100
      3 O1          -6.3320     1.2590    -0.4620 o          1 WWZ      -0.546500
      4 S1          -5.6630     0.0100    -0.1070 sy         1 WWZ       1.132600
      5 C2          -3.0290    -0.8660    -0.0980 ca         1 WWZ       0.024000
      6 O2          -6.0000    -1.2770    -0.7170 o          1 WWZ      -0.546500
      7 C3          -1.6350    -0.6820    -0.0780 ca         1 WWZ      -0.181000
      8 C4          -1.0820     0.6160    -0.0420 ca         1 WWZ       0.055000
      9 C5          -1.9520     1.7220    -0.0270 ca         1 WWZ      -0.181000
     10 C6          -3.3460     1.5480    -0.0460 ca         1 WWZ       0.024000
     11 N7           0.3140     0.8810    -0.0210 ns         1 WWZ      -0.163000
     12 C8           1.4240     0.0500    -0.0190 c          1 WWZ       0.667100
     13 O8           1.3710    -1.1740    -0.0350 o          1 WWZ      -0.590100
     14 N9           2.6040     0.7820     0.0040 ns         1 WWZ      -0.166000
     15 C10          3.9750     0.3960     0.0140 ca         1 WWZ      -0.039000
     16 C11          4.9380     1.4260     0.0420 ca         1 WWZ      -0.105500
     17 C12          6.3120     1.1230     0.0530 ca         1 WWZ      -0.129500
     18 C13          6.7310    -0.2150     0.0370 ca         1 WWZ       0.157000
     19 F13          8.0500    -0.5070     0.0480 f          1 WWZ      -0.176000
     20 C14          5.7860    -1.2500     0.0090 ca         1 WWZ      -0.129500
     21 C15          4.4110    -0.9500    -0.0030 ca         1 WWZ      -0.105500
     22 H11          4.6230     2.4670     0.0550 ha         1 WWZ       0.128500
     23 HN1         -5.1740     0.2500     1.9200 hn         1 WWZ       0.470000
     24 H2          -3.4340    -1.8770    -0.1250 ha         1 WWZ       0.137500
     25 H12          7.0490     1.9210     0.0750 ha         1 WWZ       0.135500
     26 H3          -1.0070    -1.5660    -0.0920 ha         1 WWZ       0.134000
     27 H14          6.1190    -2.2850    -0.0040 ha         1 WWZ       0.135500
     28 H5          -1.5460     2.7310     0.0000 ha         1 WWZ       0.134000
     29 H15          3.7070    -1.7750    -0.0240 ha         1 WWZ       0.128500
     30 H6          -3.9940     2.4240    -0.0350 ha         1 WWZ       0.137500
     31 HN7          0.5360     1.8670    -0.0040 hn         1 WWZ       0.150000
     32 HN9          2.4670     1.7840     0.0150 hn         1 WWZ       0.150000
     33 HN1A        -6.7210     0.5250     1.6100 hn         1 WWZ       0.470000
@<TRIPOS>BOND
     1     1     4 1   
     2     1     5 ar  
     3     1    10 ar  
     4     2     4 1   
     5     2    23 1   
     6     2    33 1   
     7     3     4 2   
     8     4     6 2   
     9     5     7 ar  
    10     5    24 1   
    11     7     8 ar  
    12     7    26 1   
    13     8     9 ar  
    14     8    11 1   
    15     9    10 ar  
    16     9    28 1   
    17    10    30 1   
    18    11    12 1   
    19    11    31 1   
    20    12    13 2   
    21    12    14 1   
    22    14    15 1   
    23    14    32 1   
    24    15    16 ar  
    25    15    21 ar  
    26    16    17 ar  
    27    16    22 1   
    28    17    18 ar  
    29    17    25 1   
    30    18    19 1   
    31    18    20 ar  
    32    20    21 ar  
    33    20    27 1   
    34    21    29 1   
@<TRIPOS>SUBSTRUCTURE
     1 WWZ         1 TEMP              0 ****  ****    0 ROOT
