@<TRIPOS>MOLECULE
WX0
   54    58     1     0     0
SMALL
No Charge or Current Charge


@<TRIPOS>ATOM
      1 C1          23.4660    17.2430    31.7540 cy         1 WX0      -0.080700
      2 C2          23.9050    17.7520    33.1650 cy         1 WX0      -0.069400
      3 C3          22.8900    16.6980    33.7730 cy         1 WX0      -0.060000
      4 C7          19.0560    17.1350    33.3870 ca         1 WX0      -0.117000
      5 C8          18.8380    18.2950    34.1460 ca         1 WX0      -0.102000
      6 C9          19.9170    18.9350    34.7850 ca         1 WX0      -0.031800
      7 C10         21.2120    18.4030    34.6450 ca         1 WX0      -0.070000
      8 C11         19.6990    20.1400    35.5890 cc         1 WX0      -0.165400
      9 C12         18.7330    20.0190    36.5850 cd         1 WX0      -0.025200
     10 C13         18.4910    21.1750    37.4030 cd         1 WX0      -0.163800
     11 C14         19.1850    22.3170    37.1980 cc         1 WX0       0.037600
     12 C15         20.4700    21.4040    35.3640 c          1 WX0       0.574200
     13 C20         23.2220    16.0720    35.1080 cc         1 WX0       0.408800
     14 C21         23.3160    14.7680    36.8780 cc         1 WX0       0.374400
     15 F2          15.8820    20.7610    40.0390 f          1 WX0      -0.114333
     16 F           17.2840    19.2010    39.4660 f          1 WX0      -0.114333
     17 F1          15.7620    19.8680    38.0600 f          1 WX0      -0.114333
     18 C18         17.5820    21.3370    38.4730 cd         1 WX0      -0.221300
     19 C17         17.7380    22.6330    38.9260 cc         1 WX0      -0.107000
     20 N1          18.7290    23.2360    38.1360 na         1 WX0      -0.010000
     21 N           20.1400    22.4310    36.2160 ns         1 WX0      -0.366100
     22 O           21.3240    21.5520    34.5020 o          1 WX0      -0.543000
     23 C6          20.3510    16.6090    33.2540 ca         1 WX0      -0.105000
     24 C5          21.4480    17.2450    33.8750 ca         1 WX0      -0.076300
     25 C4          23.2650    15.8720    32.4750 cy         1 WX0      -0.069400
     26 C           24.4760    17.3220    30.6020 c3         1 WX0      -0.078100
     27 N4          22.6970    14.9240    35.6620 na         1 WX0      -0.377000
     28 N3          24.1760    15.7560    37.0560 nd         1 WX0      -0.363000
     29 N2          24.1180    16.5680    35.9510 nd         1 WX0      -0.365000
     30 H1          22.5280    17.6910    31.4030 hc         1 WX0       0.056700
     31 H2          24.9590    17.5630    33.4050 hc         1 WX0       0.064200
     32 H3          23.6990    18.8070    33.3710 hc         1 WX0       0.064200
     33 H4          18.2180    16.6400    32.9010 ha         1 WX0       0.114000
     34 H5          17.8310    18.6960    34.2350 ha         1 WX0       0.115000
     35 H6          22.0430    18.8920    35.1490 ha         1 WX0       0.139000
     36 H7          18.1900    19.0910    36.7450 ha         1 WX0       0.201000
     37 H8          18.6730    25.1140    39.0990 h1         1 WX0       0.061033
     38 H9          20.2820    24.6110    38.5030 h1         1 WX0       0.061033
     39 H10         19.0310    25.1660    37.3480 h1         1 WX0       0.061033
     40 H11         23.1080    13.9500    37.5570 h5         1 WX0       0.059100
     41 H12         21.6370    13.0930    35.6400 h1         1 WX0       0.056033
     42 H13         20.6860    14.5260    35.1570 h1         1 WX0       0.056033
     43 H14         21.8970    13.8320    34.0360 h1         1 WX0       0.056033
     44 H15         17.2360    23.1630    39.7280 h4         1 WX0       0.167000
     45 H16         20.6450    23.2980    36.0850 hn         1 WX0       0.331500
     46 H17         20.4830    15.7030    32.6710 ha         1 WX0       0.112000
     47 H18         22.5020    15.2150    32.0480 hc         1 WX0       0.064200
     48 H19         24.1820    15.2770    32.5760 hc         1 WX0       0.064200
     49 H20         24.6490    18.3630    30.3050 hc         1 WX0       0.036700
     50 H21         25.4410    16.8880    30.8870 hc         1 WX0       0.036700
     51 H22         24.1090    16.7780    29.7230 hc         1 WX0       0.036700
     52 C22         21.6680    14.0410    35.0880 c3         1 WX0       0.065900
     53 C16         19.2080    24.6170    38.2810 c3         1 WX0       0.055900
     54 C19         16.6260    20.2910    39.0110 c3         1 WX0       0.377300
@<TRIPOS>BOND
     1     1     2 1   
     2     1    25 1   
     3     1    26 1   
     4     1    30 1   
     5     2     3 1   
     6     2    31 1   
     7     2    32 1   
     8     3    13 1   
     9     3    24 1   
    10     3    25 1   
    11     4     5 ar  
    12     4    23 ar  
    13     4    33 1   
    14     5     6 ar  
    15     5    34 1   
    16     6     7 ar  
    17     6     8 1   
    18     7    24 ar  
    19     7    35 1   
    20     8     9 2   
    21     8    12 1   
    22     9    10 1   
    23     9    36 1   
    24    10    11 2   
    25    10    18 1   
    26    11    20 1   
    27    11    21 1   
    28    12    21 1   
    29    12    22 2   
    30    13    27 1   
    31    13    29 2   
    32    14    27 1   
    33    14    28 2   
    34    14    40 1   
    35    15    54 1   
    36    16    54 1   
    37    17    54 1   
    38    18    19 2   
    39    18    54 1   
    40    19    20 1   
    41    19    44 1   
    42    20    53 1   
    43    21    45 1   
    44    23    24 ar  
    45    23    46 1   
    46    25    47 1   
    47    25    48 1   
    48    26    49 1   
    49    26    50 1   
    50    26    51 1   
    51    27    52 1   
    52    28    29 1   
    53    37    53 1   
    54    38    53 1   
    55    39    53 1   
    56    41    52 1   
    57    42    52 1   
    58    43    52 1   
@<TRIPOS>SUBSTRUCTURE
     1 WX0         1 TEMP              0 ****  ****    0 ROOT
