@<TRIPOS>MOLECULE
WX0
   54    58     1     0     0
SMALL
abcg2


@<TRIPOS>ATOM
      1 C1          23.5390    16.7990    31.4630 cy         1 WX0      -0.080700
      2 C2          23.7390    17.7640    32.6550 cy         1 WX0      -0.069400
      3 C3          22.8400    16.8340    33.5330 cy         1 WX0      -0.060000
      4 C7          19.0740    17.3900    33.0380 ca         1 WX0      -0.117000
      5 C8          18.8410    18.4230    33.9340 ca         1 WX0      -0.102000
      6 C9          19.8940    18.9500    34.6920 ca         1 WX0      -0.031800
      7 C10         21.1690    18.4110    34.5220 ca         1 WX0      -0.070000
      8 C11         19.6400    20.0240    35.6770 cc         1 WX0      -0.165400
      9 C12         18.5720    19.9400    36.5370 cd         1 WX0      -0.025200
     10 C13         18.3090    20.9640    37.4680 cd         1 WX0      -0.163800
     11 C14         19.1580    22.0680    37.4760 cc         1 WX0       0.037600
     12 C15         20.5340    21.1790    35.7070 c          1 WX0       0.574200
     13 C20         23.3700    16.5340    34.8960 cc         1 WX0       0.408800
     14 C21         23.6000    15.6290    36.8520 cc         1 WX0       0.374400
     15 F2          15.5150    20.8390    39.9230 f          1 WX0      -0.114333
     16 F           16.6830    19.1080    39.3210 f          1 WX0      -0.114333
     17 F1          15.3740    20.0690    37.8930 f          1 WX0      -0.114333
     18 C18         17.3440    21.2180    38.5010 cd         1 WX0      -0.221300
     19 C17         17.6450    22.4340    39.0560 cc         1 WX0      -0.107000
     20 N1          18.7580    22.9550    38.4250 na         1 WX0      -0.010000
     21 N           20.2150    22.1670    36.6370 ns         1 WX0      -0.366100
     22 O           21.5170    21.3500    34.9770 o          1 WX0      -0.543000
     23 C6          20.3520    16.8590    32.8870 ca         1 WX0      -0.105000
     24 C5          21.4130    17.3630    33.6350 ca         1 WX0      -0.076300
     25 C4          23.0880    15.7170    32.4700 cy         1 WX0      -0.069400
     26 C           24.7280    16.5000    30.5720 c3         1 WX0      -0.078100
     27 N4          22.8390    15.5840    35.7260 na         1 WX0      -0.377000
     28 N3          24.5370    16.5340    36.7400 nd         1 WX0      -0.363000
     29 N2          24.3910    17.1120    35.4890 nd         1 WX0      -0.365000
     30 H1          22.6880    17.1210    30.8590 hc         1 WX0       0.056700
     31 H2          24.7690    17.7570    33.0090 hc         1 WX0       0.064200
     32 H3          23.3990    18.7930    32.5460 hc         1 WX0       0.064200
     33 H4          18.2560    16.9930    32.4500 ha         1 WX0       0.114000
     34 H5          17.8450    18.8350    34.0400 ha         1 WX0       0.115000
     35 H6          21.9860    18.8090    35.1080 ha         1 WX0       0.139000
     36 H7          17.9340    19.0650    36.5030 ha         1 WX0       0.201000
     37 H8          18.8580    24.6910    39.5550 h1         1 WX0       0.061033
     38 H9          20.4290    24.0920    38.9860 h1         1 WX0       0.061033
     39 H10         19.3160    24.8960    37.8520 h1         1 WX0       0.061033
     40 H11         23.4300    14.9860    37.7010 h5         1 WX0       0.059100
     41 H12         21.6460    13.9830    36.2850 h1         1 WX0       0.056033
     42 H13         20.7720    15.3080    35.4830 h1         1 WX0       0.056033
     43 H14         21.7960    14.2130    34.5330 h1         1 WX0       0.056033
     44 H15         17.1640    22.9780    39.8510 h4         1 WX0       0.167000
     45 H16         20.8250    22.9740    36.6510 hn         1 WX0       0.331500
     46 H17         20.5060    16.0500    32.1880 ha         1 WX0       0.112000
     47 H18         22.2590    15.0670    32.1990 hc         1 WX0       0.064200
     48 H19         23.9310    15.0950    32.7770 hc         1 WX0       0.064200
     49 H20         25.0290    17.3860    30.0080 hc         1 WX0       0.036700
     50 H21         25.5830    16.1710    31.1690 hc         1 WX0       0.036700
     51 H22         24.4920    15.7100    29.8540 hc         1 WX0       0.036700
     52 C22         21.6890    14.7220    35.4890 c3         1 WX0       0.065900
     53 C16         19.3820    24.2370    38.7180 c3         1 WX0       0.055900
     54 C19         16.2430    20.3280    38.9080 c3         1 WX0       0.377300
@<TRIPOS>BOND
     1     1     2 1   
     2     1    25 1   
     3     1    26 1   
     4     1    30 1   
     5     2     3 1   
     6     2    31 1   
     7     2    32 1   
     8     3    13 1   
     9     3    24 1   
    10     3    25 1   
    11     4     5 ar  
    12     4    23 ar  
    13     4    33 1   
    14     5     6 ar  
    15     5    34 1   
    16     6     7 ar  
    17     6     8 1   
    18     7    24 ar  
    19     7    35 1   
    20     8     9 2   
    21     8    12 1   
    22     9    10 1   
    23     9    36 1   
    24    10    11 2   
    25    10    18 1   
    26    11    20 1   
    27    11    21 1   
    28    12    21 1   
    29    12    22 2   
    30    13    27 1   
    31    13    29 2   
    32    14    27 1   
    33    14    28 2   
    34    14    40 1   
    35    15    54 1   
    36    16    54 1   
    37    17    54 1   
    38    18    19 2   
    39    18    54 1   
    40    19    20 1   
    41    19    44 1   
    42    20    53 1   
    43    21    45 1   
    44    23    24 ar  
    45    23    46 1   
    46    25    47 1   
    47    25    48 1   
    48    26    49 1   
    49    26    50 1   
    50    26    51 1   
    51    27    52 1   
    52    28    29 1   
    53    37    53 1   
    54    38    53 1   
    55    39    53 1   
    56    41    52 1   
    57    42    52 1   
    58    43    52 1   
@<TRIPOS>SUBSTRUCTURE
     1 WX0         1 TEMP              0 ****  ****    0 ROOT
