@<TRIPOS>MOLECULE
WX4
   39    42     1     0     0
SMALL
abcg2


@<TRIPOS>ATOM
      1 C10        -44.8750   -30.8350     1.0590 c6         1 WX4      -0.095400
      2 N12        -44.9300   -29.2790     2.9720 nh         1 WX4      -0.784300
      3 C13        -45.2670   -28.0800     2.2170 c6         1 WX4       0.212800
      4 C20        -47.2370   -26.9610     6.0780 cc         1 WX4      -0.173100
      5 C21        -46.5190   -27.2230     4.9440 cd         1 WX4      -0.207200
      6 C22        -46.2230   -28.6310     4.9500 ca         1 WX4      -0.247800
      7 C03        -47.5650   -26.0200    -0.7540 cc         1 WX4       0.195300
      8 C04        -47.3810   -27.1100     0.0650 cd         1 WX4      -0.183000
      9 C08        -45.2880   -28.3920     0.7050 c6         1 WX4       0.069300
     10 C09        -45.8380   -29.7940     0.4580 c6         1 WX4      -0.087400
     11 C11        -44.1050   -30.2430     2.2490 c6         1 WX4       0.222800
     12 C14        -45.5180   -29.5770     4.1580 ca         1 WX4       0.437900
     13 C16        -45.9830   -31.1840     5.7630 ca         1 WX4       0.175900
     14 C18        -46.7850   -29.1510     6.1390 ca         1 WX4       0.144500
     15 N05        -46.0560   -27.3600     0.0160 na         1 WX4       0.109800
     16 N06        -45.4400   -26.4790    -0.7900 nd         1 WX4      -0.203800
     17 N07        -46.3490   -25.6690    -1.2570 nc         1 WX4      -0.339000
     18 N15        -45.4050   -30.8430     4.6090 nb         1 WX4      -0.301000
     19 N17        -46.6960   -30.4170     6.5760 nb         1 WX4      -0.227000
     20 N19        -47.4010   -28.1290     6.7950 na         1 WX4      -0.324400
     21 O01        -48.9100   -24.1540    -0.1660 oh         1 WX4      -0.660000
     22 H101       -45.4410   -31.7110     1.3780 hc         1 WX4       0.058700
     23 H102       -44.1550   -31.1640     0.3070 hc         1 WX4       0.058700
     24 H132       -44.5690   -27.2620     2.4170 h1         1 WX4       0.066200
     25 H131       -46.2640   -27.7580     2.5030 h1         1 WX4       0.066200
     26 H201       -47.6480   -26.0340     6.4400 h4         1 WX4       0.220000
     27 H211       -46.2390   -26.4850     4.2140 ha         1 WX4       0.206000
     28 H021       -49.6730   -25.9280    -0.9570 h1         1 WX4       0.036200
     29 H022       -48.7690   -24.9170    -2.1020 h1         1 WX4       0.036200
     30 H041       -48.0670   -27.6950     0.6510 h4         1 WX4       0.168000
     31 H081       -44.2860   -28.3090     0.2860 h1         1 WX4       0.097700
     32 H091       -46.8190   -29.8740     0.9300 hc         1 WX4       0.057700
     33 H092       -45.9740   -29.9550    -0.6110 hc         1 WX4       0.057700
     34 H111       -43.7810   -31.0160     2.9360 h1         1 WX4       0.069200
     35 H112       -43.2190   -29.7100     1.8960 h1         1 WX4       0.069200
     36 H161       -45.8550   -32.2200     6.0640 h5         1 WX4       0.046100
     37 H191       -47.8770   -28.2170     7.6790 hn         1 WX4       0.363000
     38 H011       -49.6970   -23.6490    -0.4080 ho         1 WX4       0.442000
     39 C02        -48.8080   -25.2680    -1.0670 c3         1 WX4       0.147300
@<TRIPOS>BOND
     1     1    10 1   
     2     1    11 1   
     3     1    22 1   
     4     1    23 1   
     5     2     3 1   
     6     2    11 1   
     7     2    12 1   
     8     3     9 1   
     9     3    24 1   
    10     3    25 1   
    11     4     5 2   
    12     4    20 1   
    13     4    26 1   
    14     5     6 1   
    15     5    27 1   
    16     6    12 ar  
    17     6    14 ar  
    18     7     8 2   
    19     7    17 1   
    20     7    39 1   
    21     8    15 1   
    22     8    30 1   
    23     9    10 1   
    24     9    15 1   
    25     9    31 1   
    26    10    32 1   
    27    10    33 1   
    28    11    34 1   
    29    11    35 1   
    30    12    18 ar  
    31    13    18 ar  
    32    13    19 ar  
    33    13    36 1   
    34    14    19 ar  
    35    14    20 1   
    36    15    16 1   
    37    16    17 2   
    38    20    37 1   
    39    21    38 1   
    40    21    39 1   
    41    28    39 1   
    42    29    39 1   
@<TRIPOS>SUBSTRUCTURE
     1 WX4         1 TEMP              0 ****  ****    0 ROOT
