@<TRIPOS>MOLECULE
WX4
   39    42     1     0     0
SMALL
No Charge or Current Charge


@<TRIPOS>ATOM
      1 C10        -44.8500   -30.7760     1.0690 c6         1 WX4      -0.095400
      2 N12        -44.9430   -29.2310     3.0550 nh         1 WX4      -0.784300
      3 C13        -45.3950   -28.0520     2.2450 c6         1 WX4       0.212800
      4 C20        -46.6030   -26.7960     6.4710 cc         1 WX4      -0.173100
      5 C21        -45.9770   -27.2310     5.3180 cd         1 WX4      -0.207200
      6 C22        -46.0970   -28.6670     5.1880 ca         1 WX4      -0.247800
      7 C03        -47.5630   -26.0100    -0.8780 cc         1 WX4       0.195300
      8 C04        -47.3830   -27.0920    -0.0710 cd         1 WX4      -0.183000
      9 C08        -45.2540   -28.2640     0.7080 c6         1 WX4       0.069300
     10 C09        -45.6890   -29.7030     0.3160 c6         1 WX4      -0.087400
     11 C11        -44.1010   -30.2170     2.3120 c6         1 WX4       0.222800
     12 C14        -45.6440   -29.5960     4.2310 ca         1 WX4       0.437900
     13 C16        -46.5870   -31.2430     5.5450 ca         1 WX4       0.175900
     14 C18        -46.7940   -29.0950     6.2910 ca         1 WX4       0.144500
     15 N05        -46.0140   -27.2370    -0.0370 na         1 WX4       0.109800
     16 N06        -45.4050   -26.2740    -0.7990 nd         1 WX4      -0.203800
     17 N07        -46.3560   -25.5310    -1.3090 nc         1 WX4      -0.339000
     18 N15        -45.8960   -30.9090     4.4280 nb         1 WX4      -0.301000
     19 N17        -47.0550   -30.3980     6.4930 nb         1 WX4      -0.227000
     20 N19        -47.1050   -27.9800     7.0540 na         1 WX4      -0.324400
     21 O01        -49.6860   -25.0110    -0.1670 oh         1 WX4      -0.660000
     22 H101       -45.5130   -31.5940     1.3830 hc         1 WX4       0.058700
     23 H102       -44.1160   -31.2280     0.3870 hc         1 WX4       0.058700
     24 H132       -44.8280   -27.1530     2.5270 h1         1 WX4       0.066200
     25 H131       -46.4530   -27.8480     2.4700 h1         1 WX4       0.066200
     26 H201       -46.7180   -25.8050     6.9060 h4         1 WX4       0.220000
     27 H211       -45.4500   -26.5720     4.6310 ha         1 WX4       0.206000
     28 H021       -49.4090   -26.0780    -1.9420 h1         1 WX4       0.036200
     29 H022       -48.6530   -24.4790    -1.9030 h1         1 WX4       0.036200
     30 H041       -48.0870   -27.7270     0.4500 h4         1 WX4       0.168000
     31 H081       -44.1940   -28.1460     0.4450 h1         1 WX4       0.097700
     32 H091       -46.7520   -29.8430     0.5590 hc         1 WX4       0.057700
     33 H092       -45.5980   -29.8480    -0.7700 hc         1 WX4       0.057700
     34 H111       -43.7760   -31.0480     2.9570 h1         1 WX4       0.069200
     35 H112       -43.1760   -29.7230     1.9790 h1         1 WX4       0.069200
     36 H161       -46.7880   -32.3020     5.6950 h5         1 WX4       0.046100
     37 H191       -47.6250   -28.0250     7.9250 hn         1 WX4       0.363000
     38 H011       -50.5050   -24.5990    -0.5230 ho         1 WX4       0.442000
     39 C02        -48.8700   -25.3700    -1.2980 c3         1 WX4       0.147300
@<TRIPOS>BOND
     1     1    10 1   
     2     1    11 1   
     3     1    22 1   
     4     1    23 1   
     5     2     3 1   
     6     2    11 1   
     7     2    12 1   
     8     3     9 1   
     9     3    24 1   
    10     3    25 1   
    11     4     5 2   
    12     4    20 1   
    13     4    26 1   
    14     5     6 1   
    15     5    27 1   
    16     6    12 ar  
    17     6    14 ar  
    18     7     8 2   
    19     7    17 1   
    20     7    39 1   
    21     8    15 1   
    22     8    30 1   
    23     9    10 1   
    24     9    15 1   
    25     9    31 1   
    26    10    32 1   
    27    10    33 1   
    28    11    34 1   
    29    11    35 1   
    30    12    18 ar  
    31    13    18 ar  
    32    13    19 ar  
    33    13    36 1   
    34    14    19 ar  
    35    14    20 1   
    36    15    16 1   
    37    16    17 2   
    38    20    37 1   
    39    21    38 1   
    40    21    39 1   
    41    28    39 1   
    42    29    39 1   
@<TRIPOS>SUBSTRUCTURE
     1 WX4         1 TEMP              0 ****  ****    0 ROOT
