@<TRIPOS>MOLECULE
WX6
   35    37     1     0     0
SMALL
No Charge or Current Charge


@<TRIPOS>ATOM
      1 C18        -24.7880    -7.5960   -20.9360 c3         1 WX6      -0.094400
      2 C19        -23.9680    -6.3020   -20.7630 c3         1 WX6       0.108500
      3 C11        -21.6370    -6.3590   -21.7020 c          1 WX6       0.617700
      4 C16        -23.9690    -8.7390   -18.7420 c3         1 WX6      -0.070400
      5 C17        -25.1640    -8.2860   -19.6080 c3         1 WX6      -0.070400
      6 C15        -23.0390    -7.5930   -18.2800 c3         1 WX6      -0.094400
      7 C14        -22.0030    -7.1390   -19.3350 c3         1 WX6       0.108500
      8 C02        -18.9080    -3.9870   -19.2930 cc         1 WX6       0.643100
      9 C04        -19.4690    -5.5390   -20.6130 ca         1 WX6       0.078400
     10 C05        -20.1500    -6.4270   -21.4660 ca         1 WX6      -0.056600
     11 C06        -19.3500    -7.3640   -22.1600 ca         1 WX6      -0.139000
     12 C07        -17.9560    -7.3960   -21.9380 ca         1 WX6       0.336900
     13 C09        -18.0940    -5.6450   -20.4630 ca         1 WX6       0.347500
     14 N03        -19.9960    -4.4720   -19.8790 nd         1 WX6      -0.653100
     15 N08        -17.3200    -6.5460   -21.0920 nb         1 WX6      -0.652000
     16 N10        -17.7570    -4.6560   -19.6080 na         1 WX6      -0.436300
     17 N13        -22.5110    -6.5350   -20.5980 n          1 WX6      -0.391800
     18 O12        -22.0670    -6.1430   -22.8310 o          1 WX6      -0.605100
     19 H181       -25.7180    -7.3440   -21.4590 hc         1 WX6       0.048450
     20 H182       -24.2460    -8.2950   -21.5860 hc         1 WX6       0.048450
     21 H192       -24.1360    -5.6670   -21.6420 h1         1 WX6       0.054450
     22 H191       -24.3480    -5.7320   -19.9050 h1         1 WX6       0.054450
     23 H162       -24.3700    -9.2390   -17.8510 hc         1 WX6       0.038950
     24 H161       -23.3850    -9.4950   -19.2830 hc         1 WX6       0.038950
     25 H171       -25.7950    -7.6090   -19.0200 hc         1 WX6       0.038950
     26 H172       -25.7830    -9.1640   -19.8340 hc         1 WX6       0.038950
     27 H152       -23.6300    -6.7380   -17.9320 hc         1 WX6       0.048450
     28 H151       -22.4790    -7.9460   -17.4050 hc         1 WX6       0.048450
     29 H141       -21.3790    -8.0050   -19.5950 h1         1 WX6       0.054450
     30 H142       -21.3500    -6.4100   -18.8430 h1         1 WX6       0.054450
     31 H061       -19.7990    -8.0670   -22.8550 ha         1 WX6       0.136000
     32 H071       -17.3300    -8.1210   -22.4570 h4         1 WX6       0.028100
     33 H101       -16.8360    -4.4360   -19.2720 hn         1 WX6       0.381000
     34 H011       -19.8450    -2.6950   -18.4630 ho         1 WX6       0.512000
     35 O01        -18.9000    -2.9480   -18.4780 oh         1 WX6      -0.602600
@<TRIPOS>BOND
     1     1     2 1   
     2     1     5 1   
     3     1    19 1   
     4     1    20 1   
     5     2    17 1   
     6     2    21 1   
     7     2    22 1   
     8     3    10 1   
     9     3    17 1   
    10     3    18 2   
    11     4     5 1   
    12     4     6 1   
    13     4    23 1   
    14     4    24 1   
    15     5    25 1   
    16     5    26 1   
    17     6     7 1   
    18     6    27 1   
    19     6    28 1   
    20     7    17 1   
    21     7    29 1   
    22     7    30 1   
    23     8    14 2   
    24     8    16 1   
    25     8    35 1   
    26     9    10 ar  
    27     9    13 ar  
    28     9    14 1   
    29    10    11 ar  
    30    11    12 ar  
    31    11    31 1   
    32    12    15 ar  
    33    12    32 1   
    34    13    15 ar  
    35    13    16 1   
    36    16    33 1   
    37    34    35 1   
@<TRIPOS>SUBSTRUCTURE
     1 WX6         1 TEMP              0 ****  ****    0 ROOT
