@<TRIPOS>MOLECULE
WX6
   35    37     1     0     0
SMALL
abcg2


@<TRIPOS>ATOM
      1 C18        -24.7590    -7.4930   -21.0360 c3         1 WX6      -0.094400
      2 C19        -24.0530    -6.1890   -20.6590 c3         1 WX6       0.108500
      3 C11        -21.7960    -6.3550   -21.4850 c          1 WX6       0.617700
      4 C16        -23.6340    -8.8160   -19.1120 c3         1 WX6      -0.070400
      5 C17        -24.9160    -8.4920   -19.8890 c3         1 WX6      -0.070400
      6 C15        -23.1030    -7.6290   -18.2980 c3         1 WX6      -0.094400
      7 C14        -22.1710    -6.6830   -19.0590 c3         1 WX6       0.108500
      8 C02        -18.7350    -3.9270   -19.5000 cc         1 WX6       0.643100
      9 C04        -19.5520    -5.5690   -20.5840 ca         1 WX6       0.078400
     10 C05        -20.3220    -6.5130   -21.2500 ca         1 WX6      -0.056600
     11 C06        -19.6310    -7.6010   -21.7930 ca         1 WX6      -0.139000
     12 C07        -18.2530    -7.7200   -21.6390 ca         1 WX6       0.336900
     13 C09        -18.1560    -5.7950   -20.5040 ca         1 WX6       0.347500
     14 N03        -19.8810    -4.3830   -19.9420 nd         1 WX6      -0.653100
     15 N08        -17.4890    -6.8190   -20.9940 nb         1 WX6      -0.652000
     16 N10        -17.6610    -4.7140   -19.7970 na         1 WX6      -0.436300
     17 N13        -22.6210    -6.3870   -20.4230 n          1 WX6      -0.391800
     18 O12        -22.1920    -6.1940   -22.6460 o          1 WX6      -0.605100
     19 H181       -25.7480    -7.2460   -21.4320 hc         1 WX6       0.048450
     20 H182       -24.1980    -7.9520   -21.8550 hc         1 WX6       0.048450
     21 H192       -24.1580    -5.4650   -21.4650 h1         1 WX6       0.054450
     22 H191       -24.4850    -5.7530   -19.7580 h1         1 WX6       0.054450
     23 H162       -23.8530    -9.6380   -18.4260 hc         1 WX6       0.038950
     24 H161       -22.8580    -9.1800   -19.7940 hc         1 WX6       0.038950
     25 H171       -25.6520    -8.1030   -19.1770 hc         1 WX6       0.038950
     26 H172       -25.3350    -9.4180   -20.2920 hc         1 WX6       0.038950
     27 H152       -23.9490    -7.0720   -17.8880 hc         1 WX6       0.048450
     28 H151       -22.5320    -7.9880   -17.4390 hc         1 WX6       0.048450
     29 H141       -21.1870    -7.1380   -19.1300 h1         1 WX6       0.054450
     30 H142       -22.0610    -5.7490   -18.5000 h1         1 WX6       0.054450
     31 H061       -20.1730    -8.3680   -22.3300 ha         1 WX6       0.136000
     32 H071       -17.7350    -8.5760   -22.0540 h4         1 WX6       0.028100
     33 H101       -16.7010    -4.5340   -19.5460 hn         1 WX6       0.381000
     34 H011       -19.3880    -2.3650   -18.6780 ho         1 WX6       0.512000
     35 O01        -18.5360    -2.8100   -18.8140 oh         1 WX6      -0.602600
@<TRIPOS>BOND
     1     1     2 1   
     2     1     5 1   
     3     1    19 1   
     4     1    20 1   
     5     2    17 1   
     6     2    21 1   
     7     2    22 1   
     8     3    10 1   
     9     3    17 1   
    10     3    18 2   
    11     4     5 1   
    12     4     6 1   
    13     4    23 1   
    14     4    24 1   
    15     5    25 1   
    16     5    26 1   
    17     6     7 1   
    18     6    27 1   
    19     6    28 1   
    20     7    17 1   
    21     7    29 1   
    22     7    30 1   
    23     8    14 2   
    24     8    16 1   
    25     8    35 1   
    26     9    10 ar  
    27     9    13 ar  
    28     9    14 1   
    29    10    11 ar  
    30    11    12 ar  
    31    11    31 1   
    32    12    15 ar  
    33    12    32 1   
    34    13    15 ar  
    35    13    16 1   
    36    16    33 1   
    37    34    35 1   
@<TRIPOS>SUBSTRUCTURE
     1 WX6         1 TEMP              0 ****  ****    0 ROOT
