@<TRIPOS>MOLECULE
WX7
   35    38     1     0     0
SMALL
No Charge or Current Charge


@<TRIPOS>ATOM
      1 C10        -46.8380   -29.5100     1.8850 c6         1 WX7       0.224800
      2 C13        -45.7040   -29.9770     4.0920 ca         1 WX7       0.435900
      3 C15        -45.1870   -31.1520     6.0060 ca         1 WX7       0.177900
      4 C17        -46.4430   -29.2590     6.2720 ca         1 WX7       0.147500
      5 C20        -47.0940   -27.8400     4.6220 cc         1 WX7      -0.204200
      6 C21        -46.3930   -29.0610     4.9140 ca         1 WX7      -0.245800
      7 C02        -42.9280   -32.1200    -1.6910 c          1 WX7       0.660100
      8 C05        -44.0330   -32.2900     0.2260 cc         1 WX7       0.514600
      9 C07        -45.0260   -31.8490     1.2680 c6         1 WX7      -0.102000
     10 C08        -46.4700   -31.7330     0.6800 c6         1 WX7      -0.063400
     11 C09        -46.9040   -30.2560     0.5230 c6         1 WX7      -0.096400
     12 C12        -44.5300   -30.5220     1.9070 c6         1 WX7       0.234800
     13 C19        -47.5620   -27.3470     5.8280 cd         1 WX7      -0.177100
     14 N03        -42.5700   -33.2250    -0.9750 ns         1 WX7      -0.402400
     15 N04        -43.2540   -33.3320     0.2150 n2         1 WX7      -0.465300
     16 N11        -45.6210   -29.8570     2.6830 nh         1 WX7      -0.782300
     17 N14        -45.0880   -31.0350     4.6620 nb         1 WX7      -0.305000
     18 N16        -45.8390   -30.3150     6.8460 nb         1 WX7      -0.230000
     19 N18        -47.1650   -28.2320     6.8600 na         1 WX7      -0.325400
     20 O06        -43.8620   -31.5390    -0.9020 os         1 WX7      -0.409700
     21 H101       -46.8810   -28.4280     1.6980 h1         1 WX7       0.053200
     22 H102       -47.7370   -29.7760     2.4610 h1         1 WX7       0.053200
     23 H151       -44.6920   -32.0090     6.4590 h5         1 WX7       0.046100
     24 H201       -47.2240   -27.3570     3.6560 ha         1 WX7       0.202000
     25 H071       -45.0510   -32.6080     2.0600 hc         1 WX7       0.095700
     26 H082       -47.1760   -32.2380     1.3540 hc         1 WX7       0.055700
     27 H081       -46.5470   -32.2580    -0.2830 hc         1 WX7       0.055700
     28 H091       -46.2560   -29.7540    -0.2090 hc         1 WX7       0.058700
     29 H092       -47.9240   -30.1980     0.1200 hc         1 WX7       0.058700
     30 H121       -43.6450   -30.7160     2.5320 h1         1 WX7       0.077200
     31 H122       -44.1860   -29.8370     1.1170 h1         1 WX7       0.077200
     32 H191       -48.1330   -26.4410     6.0270 h4         1 WX7       0.218000
     33 H031       -41.8640   -33.8650    -1.3450 hn         1 WX7       0.499000
     34 H181       -47.3580   -28.1350     7.8520 hn         1 WX7       0.363000
     35 O01        -42.5130   -31.7440    -2.7730 o          1 WX7      -0.501000
@<TRIPOS>BOND
     1     1    11 1   
     2     1    16 1   
     3     1    21 1   
     4     1    22 1   
     5     2     6 ar  
     6     2    16 1   
     7     2    17 ar  
     8     3    17 ar  
     9     3    18 ar  
    10     3    23 1   
    11     4     6 ar  
    12     4    18 ar  
    13     4    19 1   
    14     5     6 1   
    15     5    13 2   
    16     5    24 1   
    17     7    14 1   
    18     7    20 1   
    19     7    35 2   
    20     8     9 1   
    21     8    15 2   
    22     8    20 1   
    23     9    10 1   
    24     9    12 1   
    25     9    25 1   
    26    10    11 1   
    27    10    26 1   
    28    10    27 1   
    29    11    28 1   
    30    11    29 1   
    31    12    16 1   
    32    12    30 1   
    33    12    31 1   
    34    13    19 1   
    35    13    32 1   
    36    14    15 1   
    37    14    33 1   
    38    19    34 1   
@<TRIPOS>SUBSTRUCTURE
     1 WX7         1 TEMP              0 ****  ****    0 ROOT
