@<TRIPOS>MOLECULE
WX7
   35    38     1     0     0
SMALL
abcg2


@<TRIPOS>ATOM
      1 C10        -46.6010   -29.2840     1.8510 c6         1 WX7       0.224800
      2 C13        -45.5800   -29.8960     4.0200 ca         1 WX7       0.435900
      3 C15        -44.7590   -30.8070     5.9890 ca         1 WX7       0.177900
      4 C17        -46.4060   -29.3340     6.1910 ca         1 WX7       0.147500
      5 C20        -47.4780   -28.1020     4.5940 cc         1 WX7      -0.204200
      6 C21        -46.4850   -29.1240     4.7950 ca         1 WX7      -0.245800
      7 C02        -43.0030   -32.3390    -1.6530 c          1 WX7       0.660100
      8 C05        -44.1480   -32.3490     0.2430 cc         1 WX7       0.514600
      9 C07        -45.0730   -31.8210     1.2720 c6         1 WX7      -0.102000
     10 C08        -46.4870   -31.5120     0.6980 c6         1 WX7      -0.063400
     11 C09        -46.6900   -30.0120     0.5060 c6         1 WX7      -0.096400
     12 C12        -44.4850   -30.5510     1.9280 c6         1 WX7       0.234800
     13 C19        -47.9530   -27.7580     5.8290 cd         1 WX7      -0.177100
     14 N03        -42.8120   -33.4680    -0.9370 ns         1 WX7      -0.402400
     15 N04        -43.5280   -33.4740     0.2430 n2         1 WX7      -0.465300
     16 N11        -45.5160   -29.8430     2.6660 nh         1 WX7      -0.782300
     17 N14        -44.7210   -30.7200     4.6580 nb         1 WX7      -0.305000
     18 N16        -45.5670   -30.1680     6.8250 nb         1 WX7      -0.230000
     19 N18        -47.3070   -28.5090     6.7920 na         1 WX7      -0.325400
     20 O06        -43.8820   -31.5970    -0.8700 os         1 WX7      -0.409700
     21 H101       -46.4610   -28.2090     1.7000 h1         1 WX7       0.053200
     22 H102       -47.5360   -29.4300     2.3880 h1         1 WX7       0.053200
     23 H151       -44.0430   -31.4900     6.4360 h5         1 WX7       0.046100
     24 H201       -47.8020   -27.6640     3.6670 ha         1 WX7       0.202000
     25 H071       -45.1490   -32.6000     2.0300 hc         1 WX7       0.095700
     26 H082       -47.2310   -31.8890     1.4030 hc         1 WX7       0.055700
     27 H081       -46.6410   -32.0450    -0.2410 hc         1 WX7       0.055700
     28 H091       -45.9540   -29.6180    -0.1970 hc         1 WX7       0.058700
     29 H092       -47.6730   -29.8130     0.0770 hc         1 WX7       0.058700
     30 H121       -43.6760   -30.8100     2.6010 h1         1 WX7       0.077200
     31 H122       -44.0930   -29.8820     1.1600 h1         1 WX7       0.077200
     32 H191       -48.6980   -27.0340     6.1090 h4         1 WX7       0.218000
     33 H031       -42.2380   -34.2530    -1.1990 hn         1 WX7       0.499000
     34 H181       -47.4550   -28.4440     7.7870 hn         1 WX7       0.363000
     35 O01        -42.5680   -31.9670    -2.7160 o          1 WX7      -0.501000
@<TRIPOS>BOND
     1     1    11 1   
     2     1    16 1   
     3     1    21 1   
     4     1    22 1   
     5     2     6 ar  
     6     2    16 1   
     7     2    17 ar  
     8     3    17 ar  
     9     3    18 ar  
    10     3    23 1   
    11     4     6 ar  
    12     4    18 ar  
    13     4    19 1   
    14     5     6 1   
    15     5    13 2   
    16     5    24 1   
    17     7    14 1   
    18     7    20 1   
    19     7    35 2   
    20     8     9 1   
    21     8    15 2   
    22     8    20 1   
    23     9    10 1   
    24     9    12 1   
    25     9    25 1   
    26    10    11 1   
    27    10    26 1   
    28    10    27 1   
    29    11    28 1   
    30    11    29 1   
    31    12    16 1   
    32    12    30 1   
    33    12    31 1   
    34    13    19 1   
    35    13    32 1   
    36    14    15 1   
    37    14    33 1   
    38    19    34 1   
@<TRIPOS>SUBSTRUCTURE
     1 WX7         1 TEMP              0 ****  ****    0 ROOT
