@<TRIPOS>MOLECULE
WX8
   94    99     1     0     0
SMALL
No Charge or Current Charge


@<TRIPOS>ATOM
      1 C1          17.8310   -19.6140     7.1130 c3         1 WX8      -0.092100
      2 C2          18.9760   -19.4170     6.1000 c3         1 WX8      -0.118700
      3 C3          20.3120   -19.9100     6.6040 cc         1 WX8       0.315300
      4 C5          21.8920   -21.2920     6.8730 cd         1 WX8       0.493300
      5 C6          22.7240   -22.5350     6.8400 c3         1 WX8      -0.129400
      6 C8          21.3400   -19.2850     7.2750 cd         1 WX8       0.014500
      7 C12         20.0930   -15.8350     8.1510 cc         1 WX8       0.513400
      8 N13         21.0480   -14.9980     8.5760 nd         1 WX8      -0.565100
      9 C15         20.8860   -12.6140     9.2940 ca         1 WX8       0.001000
     10 C16         19.9900   -11.5330     9.4720 ca         1 WX8      -0.226600
     11 C17         18.6230   -11.7400     9.1840 ca         1 WX8       0.381900
     12 C19         18.9990   -13.9330     8.5800 ca         1 WX8       0.356500
     13 C23         17.2390   -16.8100    10.0570 c2         1 WX8      -0.234200
     14 C24         16.6050   -17.7360    11.0850 c3         1 WX8       0.113800
     15 C27         13.5490   -17.8120    10.1950 ca         1 WX8       0.147100
     16 O28         13.9020   -16.5300    10.5660 os         1 WX8      -0.370100
     17 C30         13.7730   -14.1340    10.7990 c3         1 WX8      -0.083400
     18 C31         14.8850   -13.8720     9.7660 c3         1 WX8       0.162600
     19 C33         12.2330   -18.1450     9.7880 ca         1 WX8      -0.148000
     20 C34         11.8990   -19.4640     9.3720 ca         1 WX8      -0.124600
     21 C35         12.9150   -20.4540     9.3610 ca         1 WX8      -0.066000
     22 C36         14.2090   -20.1090     9.7710 ca         1 WX8       0.103400
     23 C38         16.3070   -20.1670    10.2560 cc         1 WX8       0.497400
     24 C40         18.2150   -21.7630    10.1200 c          1 WX8       0.553600
     25 O41         17.6250   -22.6530     9.5250 o          1 WX8      -0.496100
     26 O43         20.3890   -22.9720    10.0950 os         1 WX8      -0.228000
     27 N4          20.6780   -21.2020     6.3580 nc         1 WX8      -0.704000
     28 O7          22.3800   -20.1540     7.4440 os         1 WX8      -0.228000
     29 C9          21.4510   -17.8870     7.7940 c          1 WX8       0.556600
     30 O10         22.4980   -17.4610     8.2610 o          1 WX8      -0.492100
     31 N11         20.2910   -17.1350     7.7470 ns         1 WX8      -0.422400
     32 C14         20.3500   -13.8220     8.8340 ca         1 WX8       0.042400
     33 N18         18.1160   -12.9250     8.7490 nb         1 WX8      -0.670000
     34 N20         18.8450   -15.2180     8.1450 na         1 WX8      -0.329300
     35 C22         16.9100   -16.6990     8.7530 c2         1 WX8      -0.237200
     36 N25         15.8500   -18.8710    10.5090 na         1 WX8      -0.212600
     37 C26         14.5120   -18.8420    10.1860 ca         1 WX8      -0.087200
     38 C29         12.9840   -15.4240    10.5020 c3         1 WX8       0.166600
     39 O32         15.5710   -12.6570    10.0660 oh         1 WX8      -0.668000
     40 N37         15.3150   -20.9500     9.8070 nd         1 WX8      -0.573100
     41 C42         19.6540   -21.8910    10.4890 cc         1 WX8       0.018500
     42 C44         21.6250   -22.7260    10.6040 cc         1 WX8       0.490300
     43 C45         22.7160   -23.7240    10.3760 c3         1 WX8      -0.128400
     44 N46         21.7290   -21.6020    11.2880 nd         1 WX8      -0.706000
     45 C47         20.4660   -21.0530    11.2290 cd         1 WX8       0.310300
     46 C48         20.1840   -19.7570    11.9570 c3         1 WX8      -0.117700
     47 C49         20.3300   -18.5070    11.0640 c3         1 WX8      -0.091100
     48 C50         10.4790   -19.7790     8.9430 c          1 WX8       0.612700
     49 N51         10.1870   -21.0380     8.5530 nt         1 WX8      -0.603000
     50 O52          9.5900   -18.9420     8.9370 o          1 WX8      -0.615100
     51 C53         20.4270   -10.1840     9.9500 c          1 WX8       0.617700
     52 N54         21.7340    -9.9940    10.2260 nt         1 WX8      -0.601000
     53 O55         19.6490    -9.2570    10.0980 o          1 WX8      -0.601100
     54 H1          16.8950   -19.1960     6.7240 hc         1 WX8       0.045033
     55 H2          17.6710   -20.6810     7.3070 hc         1 WX8       0.045033
     56 H3          18.0620   -19.1250     8.0650 hc         1 WX8       0.045033
     57 H4          18.7160   -19.9650     5.1860 hc         1 WX8       0.061700
     58 H5          19.0360   -18.3680     5.7900 hc         1 WX8       0.061700
     59 H6          22.1380   -23.4040     7.1580 hc         1 WX8       0.075700
     60 H7          23.0920   -22.7250     5.8260 hc         1 WX8       0.075700
     61 H8          23.5910   -22.4460     7.5040 hc         1 WX8       0.075700
     62 H9          21.9520   -12.5360     9.4900 ha         1 WX8       0.139000
     63 H10         17.8980   -10.9350     9.3060 h4         1 WX8       0.051100
     64 H11         16.8560   -14.9530     7.5080 h1         1 WX8       0.082200
     65 H12         17.6870   -16.3210     6.7790 h1         1 WX8       0.082200
     66 H13         18.0330   -16.1910    10.4800 ha         1 WX8       0.192000
     67 H14         17.3860   -18.1310    11.7470 h1         1 WX8       0.080700
     68 H15         15.9370   -17.1580    11.7350 h1         1 WX8       0.080700
     69 H16         13.0770   -13.2870    10.8040 hc         1 WX8       0.067200
     70 H17         14.2090   -14.2000    11.8020 hc         1 WX8       0.067200
     71 H18         15.5930   -14.7060     9.7890 h1         1 WX8       0.026700
     72 H19         14.4500   -13.8260     8.7580 h1         1 WX8       0.026700
     73 H20         11.4540   -17.3880     9.7880 ha         1 WX8       0.145000
     74 H21         12.7220   -21.4740     9.0430 ha         1 WX8       0.133000
     75 H22         19.4750   -17.6140     7.4060 hn         1 WX8       0.334500
     76 H23         16.0980   -17.3010     8.3390 ha         1 WX8       0.200000
     77 H24         12.5360   -15.3450     9.5020 h1         1 WX8       0.046700
     78 H25         12.1780   -15.5440    11.2380 h1         1 WX8       0.046700
     79 H26         16.4360   -12.7180     9.5840 ho         1 WX8       0.445000
     80 H27         18.2130   -19.8900    10.8940 hn         1 WX8       0.330500
     81 H28         22.4380   -24.4380     9.5930 hc         1 WX8       0.074033
     82 H29         23.6400   -23.2220    10.0700 hc         1 WX8       0.074033
     83 H30         22.9190   -24.2850    11.2940 hc         1 WX8       0.074033
     84 H31         19.1950   -19.7770    12.4300 hc         1 WX8       0.062200
     85 H32         20.8890   -19.6560    12.7920 hc         1 WX8       0.062200
     86 H33         20.0860   -17.5990    11.6290 hc         1 WX8       0.043367
     87 H34         21.3630   -18.4160    10.7070 hc         1 WX8       0.043367
     88 H35         19.6690   -18.5590    10.1910 hc         1 WX8       0.043367
     89 H36          9.2450   -21.2560     8.2660 hn         1 WX8       0.317000
     90 H37         10.9000   -21.7500     8.5490 hn         1 WX8       0.317000
     91 H38         22.0390    -9.0880    10.5490 hn         1 WX8       0.318500
     92 H39         22.3960   -10.7450    10.1120 hn         1 WX8       0.318500
     93 C21         17.5470   -15.7790     7.7230 c3         1 WX8       0.111800
     94 N39         17.6090   -20.5700    10.4660 ns         1 WX8      -0.421400
@<TRIPOS>BOND
     1     1     2 1   
     2     1    54 1   
     3     1    55 1   
     4     1    56 1   
     5     2     3 1   
     6     2    57 1   
     7     2    58 1   
     8     3     6 2   
     9     3    27 1   
    10     4     5 1   
    11     4    27 2   
    12     4    28 1   
    13     5    59 1   
    14     5    60 1   
    15     5    61 1   
    16     6    28 1   
    17     6    29 1   
    18     7     8 2   
    19     7    31 1   
    20     7    34 1   
    21     8    32 1   
    22     9    10 ar  
    23     9    32 ar  
    24     9    62 1   
    25    10    11 ar  
    26    10    51 1   
    27    11    33 ar  
    28    11    63 1   
    29    12    32 ar  
    30    12    33 ar  
    31    12    34 1   
    32    13    14 1   
    33    13    35 2   
    34    13    66 1   
    35    14    36 1   
    36    14    67 1   
    37    14    68 1   
    38    15    16 1   
    39    15    19 ar  
    40    15    37 ar  
    41    16    38 1   
    42    17    18 1   
    43    17    38 1   
    44    17    69 1   
    45    17    70 1   
    46    18    39 1   
    47    18    71 1   
    48    18    72 1   
    49    19    20 ar  
    50    19    73 1   
    51    20    21 ar  
    52    20    48 1   
    53    21    22 ar  
    54    21    74 1   
    55    22    37 ar  
    56    22    40 1   
    57    23    36 1   
    58    23    40 2   
    59    23    94 1   
    60    24    25 2   
    61    24    41 1   
    62    24    94 1   
    63    26    41 1   
    64    26    42 1   
    65    29    30 2   
    66    29    31 1   
    67    31    75 1   
    68    34    93 1   
    69    35    76 1   
    70    35    93 1   
    71    36    37 1   
    72    38    77 1   
    73    38    78 1   
    74    39    79 1   
    75    41    45 2   
    76    42    43 1   
    77    42    44 2   
    78    43    81 1   
    79    43    82 1   
    80    43    83 1   
    81    44    45 1   
    82    45    46 1   
    83    46    47 1   
    84    46    84 1   
    85    46    85 1   
    86    47    86 1   
    87    47    87 1   
    88    47    88 1   
    89    48    49 1   
    90    48    50 2   
    91    49    89 1   
    92    49    90 1   
    93    51    52 1   
    94    51    53 2   
    95    52    91 1   
    96    52    92 1   
    97    64    93 1   
    98    65    93 1   
    99    80    94 1   
@<TRIPOS>SUBSTRUCTURE
     1 WX8         1 TEMP              0 ****  ****    0 ROOT
