@<TRIPOS>MOLECULE
WX8
   94    99     1     0     0
SMALL
abcg2


@<TRIPOS>ATOM
      1 C1          19.1030   -20.3430     6.6550 c3         1 WX8      -0.092100
      2 C2          20.4330   -19.7480     6.1690 c3         1 WX8      -0.118700
      3 C3          21.5260   -19.8620     7.1770 cc         1 WX8       0.315300
      4 C5          23.1410   -20.8240     8.2190 cd         1 WX8       0.493300
      5 C6          24.1810   -21.7350     8.7380 c3         1 WX8      -0.129400
      6 C8          22.0000   -18.9790     8.1090 cd         1 WX8       0.014500
      7 C12         20.0620   -15.8130     8.1520 cc         1 WX8       0.513400
      8 N13         20.7120   -14.7610     8.5950 nd         1 WX8      -0.565100
      9 C15         19.8900   -12.3830     8.8410 ca         1 WX8       0.001000
     10 C16         18.7460   -11.6030     8.6300 ca         1 WX8      -0.226600
     11 C17         17.5900   -12.1910     8.0930 ca         1 WX8       0.381900
     12 C19         18.5800   -14.1930     7.9790 ca         1 WX8       0.356500
     13 C23         17.4090   -17.1020     9.7460 c2         1 WX8      -0.234200
     14 C24         16.7620   -17.8450    10.8770 c3         1 WX8       0.113800
     15 C27         13.6070   -17.3730    10.5080 ca         1 WX8       0.147100
     16 O28         14.2280   -16.2840    11.0220 os         1 WX8      -0.370100
     17 C30         14.4450   -13.9950    11.6510 c3         1 WX8      -0.083400
     18 C31         15.5740   -13.6930    10.6820 c3         1 WX8       0.162600
     19 C33         12.2590   -17.4550    10.1860 ca         1 WX8      -0.148000
     20 C34         11.6930   -18.6370     9.6660 ca         1 WX8      -0.124600
     21 C35         12.4700   -19.7670     9.4380 ca         1 WX8      -0.066000
     22 C36         13.8280   -19.6910     9.7450 ca         1 WX8       0.103400
     23 C38         15.9190   -20.0750    10.0010 cc         1 WX8       0.497400
     24 C40         17.6100   -21.8070     9.4890 c          1 WX8       0.553600
     25 O41         16.9100   -22.5270     8.7980 o          1 WX8      -0.496100
     26 O43         19.5430   -23.1520     9.0220 os         1 WX8      -0.228000
     27 N4          22.2700   -21.0290     7.2740 nc         1 WX8      -0.704000
     28 O7          23.0420   -19.5980     8.7680 os         1 WX8      -0.228000
     29 C9          21.7240   -17.6050     8.5300 c          1 WX8       0.556600
     30 O10         22.4750   -16.9820     9.2580 o          1 WX8      -0.492100
     31 N11         20.5350   -17.0950     8.0310 ns         1 WX8      -0.422400
     32 C14         19.8040   -13.7220     8.5050 ca         1 WX8       0.042400
     33 N18         17.4890   -13.4830     7.7590 nb         1 WX8      -0.670000
     34 N20         18.7640   -15.5400     7.7530 na         1 WX8      -0.329300
     35 C22         17.1030   -17.2350     8.4650 c2         1 WX8      -0.237200
     36 N25         15.7320   -18.7840    10.4550 na         1 WX8      -0.212600
     37 C26         14.3830   -18.5160    10.2800 ca         1 WX8      -0.087200
     38 C29         13.4940   -15.0550    11.1380 c3         1 WX8       0.166600
     39 O32         16.3770   -12.6490    11.2450 oh         1 WX8      -0.668000
     40 N37         14.8170   -20.6510     9.5850 nd         1 WX8      -0.573100
     41 C42         19.0040   -22.1420     9.7930 cc         1 WX8       0.018500
     42 C44         20.8000   -23.3230     9.4760 cc         1 WX8       0.490300
     43 C45         21.6390   -24.3490     8.8240 c3         1 WX8      -0.128400
     44 N46         21.0960   -22.5290    10.4630 nd         1 WX8      -0.706000
     45 C47         19.9620   -21.7620    10.6930 cd         1 WX8       0.310300
     46 C48         19.9500   -20.7490    11.7870 c3         1 WX8      -0.117700
     47 C49         20.6060   -19.4220    11.3820 c3         1 WX8      -0.091100
     48 C50         10.2300   -18.5980     9.3500 c          1 WX8       0.612700
     49 N51          9.5980   -19.7820     9.2130 nt         1 WX8      -0.603000
     50 O52          9.6270   -17.5290     9.2150 o          1 WX8      -0.615100
     51 C53         18.6790   -10.1500     8.9790 c          1 WX8       0.617700
     52 N54         19.8480    -9.4810     9.0240 nt         1 WX8      -0.601000
     53 O55         17.6020    -9.6020     9.2200 o          1 WX8      -0.601100
     54 H1          18.3460   -20.2540     5.8750 hc         1 WX8       0.045033
     55 H2          19.2230   -21.3980     6.9000 hc         1 WX8       0.045033
     56 H3          18.7360   -19.8270     7.5440 hc         1 WX8       0.045033
     57 H4          20.7590   -20.2820     5.2740 hc         1 WX8       0.061700
     58 H5          20.2960   -18.7070     5.8710 hc         1 WX8       0.061700
     59 H6          24.2140   -22.6340     8.1280 hc         1 WX8       0.075700
     60 H7          25.1560   -21.2460     8.7220 hc         1 WX8       0.075700
     61 H8          23.9560   -22.0100     9.7700 hc         1 WX8       0.075700
     62 H9          20.7960   -11.9770     9.2740 ha         1 WX8       0.139000
     63 H10         16.7140   -11.5770     7.9340 h4         1 WX8       0.051100
     64 H11         16.9640   -15.8700     6.8300 h1         1 WX8       0.082200
     65 H12         18.1220   -17.1460     6.5770 h1         1 WX8       0.082200
     66 H13         18.1720   -16.4000    10.0650 ha         1 WX8       0.192000
     67 H14         17.5130   -18.3770    11.4660 h1         1 WX8       0.080700
     68 H15         16.3010   -17.1370    11.5620 h1         1 WX8       0.080700
     69 H16         13.8670   -13.0840    11.8260 hc         1 WX8       0.067200
     70 H17         14.8580   -14.3100    12.6130 hc         1 WX8       0.067200
     71 H18         16.1810   -14.5840    10.5100 h1         1 WX8       0.026700
     72 H19         15.1600   -13.3780     9.7170 h1         1 WX8       0.026700
     73 H20         11.6100   -16.6050    10.3280 ha         1 WX8       0.145000
     74 H21         12.0690   -20.6730     9.0050 ha         1 WX8       0.133000
     75 H22         19.9220   -17.7520     7.5790 hn         1 WX8       0.334500
     76 H23         16.3390   -17.9370     8.1490 ha         1 WX8       0.200000
     77 H24         13.0920   -14.7860    10.1560 h1         1 WX8       0.046700
     78 H25         12.6600   -15.1940    11.8300 h1         1 WX8       0.046700
     79 H26         17.1260   -12.4930    10.6560 ho         1 WX8       0.445000
     80 H27         17.8980   -20.0250    10.4370 hn         1 WX8       0.330500
     81 H28         21.8400   -24.0670     7.7890 hc         1 WX8       0.074033
     82 H29         22.5810   -24.4420     9.3580 hc         1 WX8       0.074033
     83 H30         21.1250   -25.3120     8.8190 hc         1 WX8       0.074033
     84 H31         18.9290   -20.5770    12.1310 hc         1 WX8       0.062200
     85 H32         20.4940   -21.1770    12.6320 hc         1 WX8       0.062200
     86 H33         20.6030   -18.7290    12.2240 hc         1 WX8       0.043367
     87 H34         21.6380   -19.5810    11.0700 hc         1 WX8       0.043367
     88 H35         20.0700   -18.9520    10.5550 hc         1 WX8       0.043367
     89 H36          8.6100   -19.7820     9.0160 hn         1 WX8       0.317000
     90 H37         10.0350   -20.6590     9.4380 hn         1 WX8       0.317000
     91 H38         19.8340    -8.4970     9.2430 hn         1 WX8       0.318500
     92 H39         20.7140    -9.8810     8.7090 hn         1 WX8       0.318500
     93 C21         17.7250   -16.4660     7.3350 c3         1 WX8       0.111800
     94 N39         17.1850   -20.6140    10.0400 ns         1 WX8      -0.421400
@<TRIPOS>BOND
     1     1     2 1   
     2     1    54 1   
     3     1    55 1   
     4     1    56 1   
     5     2     3 1   
     6     2    57 1   
     7     2    58 1   
     8     3     6 2   
     9     3    27 1   
    10     4     5 1   
    11     4    27 2   
    12     4    28 1   
    13     5    59 1   
    14     5    60 1   
    15     5    61 1   
    16     6    28 1   
    17     6    29 1   
    18     7     8 2   
    19     7    31 1   
    20     7    34 1   
    21     8    32 1   
    22     9    10 ar  
    23     9    32 ar  
    24     9    62 1   
    25    10    11 ar  
    26    10    51 1   
    27    11    33 ar  
    28    11    63 1   
    29    12    32 ar  
    30    12    33 ar  
    31    12    34 1   
    32    13    14 1   
    33    13    35 2   
    34    13    66 1   
    35    14    36 1   
    36    14    67 1   
    37    14    68 1   
    38    15    16 1   
    39    15    19 ar  
    40    15    37 ar  
    41    16    38 1   
    42    17    18 1   
    43    17    38 1   
    44    17    69 1   
    45    17    70 1   
    46    18    39 1   
    47    18    71 1   
    48    18    72 1   
    49    19    20 ar  
    50    19    73 1   
    51    20    21 ar  
    52    20    48 1   
    53    21    22 ar  
    54    21    74 1   
    55    22    37 ar  
    56    22    40 1   
    57    23    36 1   
    58    23    40 2   
    59    23    94 1   
    60    24    25 2   
    61    24    41 1   
    62    24    94 1   
    63    26    41 1   
    64    26    42 1   
    65    29    30 2   
    66    29    31 1   
    67    31    75 1   
    68    34    93 1   
    69    35    76 1   
    70    35    93 1   
    71    36    37 1   
    72    38    77 1   
    73    38    78 1   
    74    39    79 1   
    75    41    45 2   
    76    42    43 1   
    77    42    44 2   
    78    43    81 1   
    79    43    82 1   
    80    43    83 1   
    81    44    45 1   
    82    45    46 1   
    83    46    47 1   
    84    46    84 1   
    85    46    85 1   
    86    47    86 1   
    87    47    87 1   
    88    47    88 1   
    89    48    49 1   
    90    48    50 2   
    91    49    89 1   
    92    49    90 1   
    93    51    52 1   
    94    51    53 2   
    95    52    91 1   
    96    52    92 1   
    97    64    93 1   
    98    65    93 1   
    99    80    94 1   
@<TRIPOS>SUBSTRUCTURE
     1 WX8         1 TEMP              0 ****  ****    0 ROOT
