@<TRIPOS>MOLECULE
WX9
   63    67     1     0     0
SMALL
No Charge or Current Charge


@<TRIPOS>ATOM
      1 C1          23.2290    17.7060    31.5720 cy         1 WX9      -0.079700
      2 C2          23.6130    18.0040    33.0570 cy         1 WX9      -0.071900
      3 C3          22.6670    16.7990    33.4600 cy         1 WX9      -0.059000
      4 C7          21.6180    13.8860    34.2950 c3         1 WX9       0.061900
      5 C8          21.1890    17.2230    33.6140 ca         1 WX9      -0.075300
      6 C9          20.8630    18.2220    34.5560 ca         1 WX9      -0.063000
      7 C10         19.5310    18.6370    34.7470 ca         1 WX9      -0.033800
      8 C11         18.5090    18.0380    33.9880 ca         1 WX9      -0.098000
      9 C12         18.8170    17.0340    33.0570 ca         1 WX9      -0.117000
     10 C13         20.1480    16.6250    32.8720 ca         1 WX9      -0.105000
     11 C14         19.2200    19.6770    35.7300 cc         1 WX9      -0.165400
     12 C15         19.8590    21.0130    35.6960 c          1 WX9       0.563200
     13 C16         18.5100    21.5070    37.6800 cc         1 WX9       0.050600
     14 C20         20.0490    23.2560    36.7800 c3         1 WX9       0.177000
     15 C21         20.7000    23.5110    38.1240 cc         1 WX9      -0.254300
     16 C22         21.1400    22.6210    39.0640 cd         1 WX9      -0.134000
     17 F2          15.7720    19.3650    38.2100 f          1 WX9      -0.115333
     18 F           17.3910    18.9170    39.5900 f          1 WX9      -0.115333
     19 F1          16.5230    20.9080    39.5400 f          1 WX9      -0.115333
     20 C17         17.9120    20.2580    37.7070 cd         1 WX9      -0.337200
     21 N3          19.4600    21.8880    36.7290 n          1 WX9      -0.262000
     22 C25         18.9990    24.3230    36.3980 c3         1 WX9      -0.101100
     23 C23         21.0080    24.7820    38.6440 cc         1 WX9       0.250900
     24 N5          21.5870    24.7620    39.8260 nd         1 WX9      -0.518800
     25 N4          21.6680    23.4050    40.0930 na         1 WX9       0.140800
     26 O           20.6700    21.3320    34.8330 o          1 WX9      -0.541000
     27 C18         18.2960    19.3130    36.6900 cd         1 WX9      -0.048000
     28 C4          23.1160    16.2250    32.0540 cy         1 WX9      -0.071900
     29 C           24.2450    18.0410    30.4720 c3         1 WX9      -0.078100
     30 C5          23.0240    15.9870    34.6840 cc         1 WX9       0.404800
     31 N2          23.8720    16.3960    35.6180 nd         1 WX9      -0.366000
     32 N1          23.9710    15.4200    36.5780 nd         1 WX9      -0.362000
     33 C6          23.1860    14.4190    36.2190 cc         1 WX9       0.368400
     34 N           22.5730    14.7300    35.0300 na         1 WX9      -0.362000
     35 H1          22.2670    18.1410    31.2760 hc         1 WX9       0.060700
     36 H2          24.6750    17.8490    33.2880 hc         1 WX9       0.063200
     37 H3          23.3320    18.9950    33.4270 hc         1 WX9       0.063200
     38 H4          21.6470    12.8600    34.6840 h1         1 WX9       0.056367
     39 H5          20.6030    14.2850    34.4170 h1         1 WX9       0.056367
     40 H6          21.8750    13.8690    33.2290 h1         1 WX9       0.056367
     41 H7          21.6500    18.6770    35.1520 ha         1 WX9       0.136000
     42 H8          17.4750    18.3520    34.1180 ha         1 WX9       0.115000
     43 H9          18.0220    16.5700    32.4780 ha         1 WX9       0.113000
     44 H10         20.3500    15.8370    32.1540 ha         1 WX9       0.109000
     45 H11         18.3080    22.3000    38.3950 h4         1 WX9       0.221000
     46 H12         20.8540    23.3370    36.0370 h1         1 WX9       0.103700
     47 H13         21.1260    21.5360    39.0900 h4         1 WX9       0.167000
     48 H14         21.7430    23.3620    42.1970 h1         1 WX9       0.062367
     49 H15         22.1780    21.8250    41.3940 h1         1 WX9       0.062367
     50 H16         23.3250    23.1980    41.3760 h1         1 WX9       0.062367
     51 H17         19.4650    25.3100    36.2940 hc         1 WX9       0.049367
     52 H18         18.5330    24.0720    35.4370 hc         1 WX9       0.049367
     53 H19         18.2100    24.3910    37.1550 hc         1 WX9       0.049367
     54 H20         20.8240    25.7420    38.1810 h4         1 WX9       0.038100
     55 H21         17.8620    18.3140    36.6820 ha         1 WX9       0.200000
     56 H22         22.4070    15.5970    31.5080 hc         1 WX9       0.063200
     57 H23         24.0710    15.6850    32.0800 hc         1 WX9       0.063200
     58 H24         24.3490    19.1260    30.3540 hc         1 WX9       0.036033
     59 H25         25.2350    17.6320    30.7070 hc         1 WX9       0.036033
     60 H26         23.9290    17.6250    29.5080 hc         1 WX9       0.036033
     61 H27         23.0260    13.4890    36.7510 h5         1 WX9       0.060100
     62 C19         16.8990    19.8660    38.7640 c3         1 WX9       0.376200
     63 C24         22.2650    22.9170    41.3430 c3         1 WX9       0.064900
@<TRIPOS>BOND
     1     1     2 1   
     2     1    28 1   
     3     1    29 1   
     4     1    35 1   
     5     2     3 1   
     6     2    36 1   
     7     2    37 1   
     8     3     5 1   
     9     3    28 1   
    10     3    30 1   
    11     4    34 1   
    12     4    38 1   
    13     4    39 1   
    14     4    40 1   
    15     5     6 ar  
    16     5    10 ar  
    17     6     7 ar  
    18     6    41 1   
    19     7     8 ar  
    20     7    11 1   
    21     8     9 ar  
    22     8    42 1   
    23     9    10 ar  
    24     9    43 1   
    25    10    44 1   
    26    11    12 1   
    27    11    27 2   
    28    12    21 1   
    29    12    26 2   
    30    13    20 2   
    31    13    21 1   
    32    13    45 1   
    33    14    15 1   
    34    14    21 1   
    35    14    22 1   
    36    14    46 1   
    37    15    16 2   
    38    15    23 1   
    39    16    25 1   
    40    16    47 1   
    41    17    62 1   
    42    18    62 1   
    43    19    62 1   
    44    20    27 1   
    45    20    62 1   
    46    22    51 1   
    47    22    52 1   
    48    22    53 1   
    49    23    24 2   
    50    23    54 1   
    51    24    25 1   
    52    25    63 1   
    53    27    55 1   
    54    28    56 1   
    55    28    57 1   
    56    29    58 1   
    57    29    59 1   
    58    29    60 1   
    59    30    31 2   
    60    30    34 1   
    61    31    32 1   
    62    32    33 2   
    63    33    34 1   
    64    33    61 1   
    65    48    63 1   
    66    49    63 1   
    67    50    63 1   
@<TRIPOS>SUBSTRUCTURE
     1 WX9         1 TEMP              0 ****  ****    0 ROOT
