@<TRIPOS>MOLECULE
WX9
   63    67     1     0     0
SMALL
abcg2


@<TRIPOS>ATOM
      1 C1          23.2890    17.6870    31.6680 cy         1 WX9      -0.079700
      2 C2          23.3630    18.1800    33.1230 cy         1 WX9      -0.071900
      3 C3          22.5590    16.9260    33.5550 cy         1 WX9      -0.059000
      4 C7          21.8310    14.0630    34.4400 c3         1 WX9       0.061900
      5 C8          21.0760    17.2500    33.6640 ca         1 WX9      -0.075300
      6 C9          20.6860    18.1640    34.6400 ca         1 WX9      -0.063000
      7 C10         19.3630    18.5770    34.7690 ca         1 WX9      -0.033800
      8 C11         18.4040    18.0330    33.9140 ca         1 WX9      -0.098000
      9 C12         18.7760    17.1070    32.9540 ca         1 WX9      -0.117000
     10 C13         20.1060    16.7250    32.8190 ca         1 WX9      -0.105000
     11 C14         18.9750    19.5900    35.7700 cc         1 WX9      -0.165400
     12 C15         19.7290    20.8340    35.8050 c          1 WX9       0.563200
     13 C16         18.2540    21.5520    37.5710 cc         1 WX9       0.050600
     14 C20         20.0180    23.0600    36.8510 c3         1 WX9       0.177000
     15 C21         20.6380    23.2090    38.2030 cc         1 WX9      -0.254300
     16 C22         21.8630    22.7190    38.6040 cd         1 WX9      -0.134000
     17 F2          15.2130    20.1060    37.7660 f          1 WX9      -0.115333
     18 F           16.4880    19.0550    39.1340 f          1 WX9      -0.115333
     19 F1          16.2330    21.1860    39.3220 f          1 WX9      -0.115333
     20 C17         17.5310    20.4050    37.5280 cd         1 WX9      -0.337200
     21 N3          19.2880    21.7720    36.7370 n          1 WX9      -0.262000
     22 C25         19.1060    24.2160    36.4670 c3         1 WX9      -0.101100
     23 C23         20.1520    23.8700    39.3450 cc         1 WX9       0.250900
     24 N5          21.0020    23.7820    40.3510 nd         1 WX9      -0.518800
     25 N4          22.0320    23.0840    39.8840 na         1 WX9       0.140800
     26 O           20.6830    21.0750    35.0800 o          1 WX9      -0.541000
     27 C18         17.9110    19.4060    36.5970 cd         1 WX9      -0.048000
     28 C4          23.0110    16.2790    32.2180 cy         1 WX9      -0.071900
     29 C           24.4950    17.8870    30.7780 c3         1 WX9      -0.078100
     30 C5          23.0290    16.2530    34.7950 cc         1 WX9       0.404800
     31 N2          23.8400    16.7520    35.6880 nd         1 WX9      -0.366000
     32 N1          24.0440    15.8080    36.6430 nd         1 WX9      -0.362000
     33 C6          23.3570    14.7590    36.3010 cc         1 WX9       0.368400
     34 N           22.6940    14.9850    35.1440 na         1 WX9      -0.362000
     35 H1          22.3940    18.0840    31.1810 hc         1 WX9       0.060700
     36 H2          24.3870    18.1380    33.4960 hc         1 WX9       0.063200
     37 H3          22.9390    19.1530    33.3760 hc         1 WX9       0.063200
     38 H4          21.8460    13.1050    34.9520 h1         1 WX9       0.056367
     39 H5          20.8090    14.4330    34.4140 h1         1 WX9       0.056367
     40 H6          22.1790    13.9160    33.4200 h1         1 WX9       0.056367
     41 H7          21.4350    18.5700    35.3080 ha         1 WX9       0.136000
     42 H8          17.3720    18.3540    33.9890 ha         1 WX9       0.115000
     43 H9          18.0290    16.6840    32.2950 ha         1 WX9       0.113000
     44 H10         20.3680    16.0170    32.0440 ha         1 WX9       0.109000
     45 H11         18.0330    22.3470    38.2680 h4         1 WX9       0.221000
     46 H12         20.8160    22.9940    36.1170 h1         1 WX9       0.103700
     47 H13         22.6070    22.1520    38.0670 h4         1 WX9       0.167000
     48 H14         22.9870    23.2220    41.7080 h1         1 WX9       0.062367
     49 H15         23.3470    21.7420    40.8070 h1         1 WX9       0.062367
     50 H16         24.0730    23.2810    40.3120 h1         1 WX9       0.062367
     51 H17         19.6860    25.1360    36.4250 hc         1 WX9       0.049367
     52 H18         18.6690    24.0480    35.4830 hc         1 WX9       0.049367
     53 H19         18.2940    24.3660    37.1780 hc         1 WX9       0.049367
     54 H20         19.2200    24.4030    39.4680 h4         1 WX9       0.038100
     55 H21         17.3630    18.4720    36.5500 ha         1 WX9       0.200000
     56 H22         22.3270    15.6240    31.6800 hc         1 WX9       0.063200
     57 H23         23.9490    15.7360    32.3670 hc         1 WX9       0.063200
     58 H24         24.6540    18.9440    30.5580 hc         1 WX9       0.036033
     59 H25         25.4000    17.5090    31.2580 hc         1 WX9       0.036033
     60 H26         24.3800    17.3630    29.8280 hc         1 WX9       0.036033
     61 H27         23.2890    13.8320    36.8490 h5         1 WX9       0.060100
     62 C19         16.3720    20.1940    38.4360 c3         1 WX9       0.376200
     63 C24         23.1790    22.8140    40.7210 c3         1 WX9       0.064900
@<TRIPOS>BOND
     1     1     2 1   
     2     1    28 1   
     3     1    29 1   
     4     1    35 1   
     5     2     3 1   
     6     2    36 1   
     7     2    37 1   
     8     3     5 1   
     9     3    28 1   
    10     3    30 1   
    11     4    34 1   
    12     4    38 1   
    13     4    39 1   
    14     4    40 1   
    15     5     6 ar  
    16     5    10 ar  
    17     6     7 ar  
    18     6    41 1   
    19     7     8 ar  
    20     7    11 1   
    21     8     9 ar  
    22     8    42 1   
    23     9    10 ar  
    24     9    43 1   
    25    10    44 1   
    26    11    12 1   
    27    11    27 2   
    28    12    21 1   
    29    12    26 2   
    30    13    20 2   
    31    13    21 1   
    32    13    45 1   
    33    14    15 1   
    34    14    21 1   
    35    14    22 1   
    36    14    46 1   
    37    15    16 2   
    38    15    23 1   
    39    16    25 1   
    40    16    47 1   
    41    17    62 1   
    42    18    62 1   
    43    19    62 1   
    44    20    27 1   
    45    20    62 1   
    46    22    51 1   
    47    22    52 1   
    48    22    53 1   
    49    23    24 2   
    50    23    54 1   
    51    24    25 1   
    52    25    63 1   
    53    27    55 1   
    54    28    56 1   
    55    28    57 1   
    56    29    58 1   
    57    29    59 1   
    58    29    60 1   
    59    30    31 2   
    60    30    34 1   
    61    31    32 1   
    62    32    33 2   
    63    33    34 1   
    64    33    61 1   
    65    48    63 1   
    66    49    63 1   
    67    50    63 1   
@<TRIPOS>SUBSTRUCTURE
     1 WX9         1 TEMP              0 ****  ****    0 ROOT
