@<TRIPOS>MOLECULE
WXA
   41    43     1     0     0
SMALL
abcg2


@<TRIPOS>ATOM
      1 C10        -44.5840   -27.8010     1.6150 c6         1 WXA       0.211800
      2 C11        -43.3650   -28.5900     1.0910 c6         1 WXA      -0.090400
      3 C12        -43.2060   -29.9060     1.8510 c6         1 WXA      -0.052400
      4 C13        -44.4460   -30.7700     1.6060 c6         1 WXA      -0.315700
      5 C18        -45.7560   -29.9330     1.6630 c6         1 WXA       0.246800
      6 C01        -50.3280   -29.6760     2.7910 c3         1 WXA      -0.088100
      7 C03        -48.1320   -29.5840     4.0690 cc         1 WXA      -0.098400
      8 C04        -48.7240   -29.8390     5.2790 cd         1 WXA      -0.166100
      9 C06        -46.7190   -29.0050     5.7900 ca         1 WXA       0.149500
     10 C07        -46.8150   -29.0670     4.3780 ca         1 WXA      -0.206800
     11 C08        -45.6830   -28.5670     3.6900 ca         1 WXA       0.409900
     12 C20        -44.7710   -27.9410     5.7220 ca         1 WXA       0.168900
     13 N05        -47.8650   -29.5120     6.3120 na         1 WXA      -0.324400
     14 N09        -45.5470   -28.6540     2.3200 nh         1 WXA      -0.774300
     15 N19        -44.7070   -27.9660     4.3870 nb         1 WXA      -0.281000
     16 N21        -45.7120   -28.4690     6.4930 nb         1 WXA      -0.208000
     17 S14        -44.5580   -32.1370     2.7790 s6         1 WXA       1.093000
     18 H101       -44.2700   -27.0230     2.3000 h1         1 WXA       0.064700
     19 H102       -45.1100   -27.3320     0.7790 h1         1 WXA       0.064700
     20 H111       -43.4840   -28.8050     0.0260 hc         1 WXA       0.047200
     21 H112       -42.4620   -27.9870     1.1970 hc         1 WXA       0.047200
     22 H121       -42.3080   -30.4300     1.5260 hc         1 WXA       0.061200
     23 H122       -43.1060   -29.7010     2.9170 hc         1 WXA       0.061200
     24 H131       -44.3840   -31.2700     0.6380 h1         1 WXA       0.089700
     25 H151       -43.2090   -34.0020     3.1010 h1         1 WXA       0.103033
     26 H153       -43.1430   -33.4370     1.4020 h1         1 WXA       0.103033
     27 H152       -42.2300   -32.5650     2.6820 h1         1 WXA       0.103033
     28 H182       -46.0930   -29.7530     0.6430 h1         1 WXA       0.074200
     29 H181       -46.5340   -30.4930     2.1630 h1         1 WXA       0.074200
     30 H012       -50.7480   -29.7580     1.7870 hc         1 WXA       0.033700
     31 H013       -50.7340   -30.4960     3.3870 hc         1 WXA       0.033700
     32 H011       -50.6700   -28.7380     3.2320 hc         1 WXA       0.033700
     33 H022       -48.5110   -30.6750     2.2590 hc         1 WXA       0.049200
     34 H021       -48.4370   -28.9430     2.0670 hc         1 WXA       0.049200
     35 H041       -49.7120   -30.2080     5.4980 h4         1 WXA       0.217000
     36 H201       -43.9490   -27.4460     6.2290 h5         1 WXA       0.044100
     37 H051       -48.0890   -29.5430     7.2940 hn         1 WXA       0.363000
     38 C15        -43.1260   -33.1350     2.4470 c3         1 WXA      -0.339100
     39 O16        -44.4590   -31.6260     4.1370 o          1 WXA      -0.520500
     40 C02        -48.8010   -29.7310     2.7300 c3         1 WXA      -0.011200
     41 O17        -45.7430   -32.9150     2.4450 o          1 WXA      -0.520500
@<TRIPOS>BOND
     1     1     2 1   
     2     1    14 1   
     3     1    18 1   
     4     1    19 1   
     5     2     3 1   
     6     2    20 1   
     7     2    21 1   
     8     3     4 1   
     9     3    22 1   
    10     3    23 1   
    11     4     5 1   
    12     4    17 1   
    13     4    24 1   
    14     5    14 1   
    15     5    28 1   
    16     5    29 1   
    17     6    30 1   
    18     6    31 1   
    19     6    32 1   
    20     6    40 1   
    21     7     8 2   
    22     7    10 1   
    23     7    40 1   
    24     8    13 1   
    25     8    35 1   
    26     9    10 ar  
    27     9    13 1   
    28     9    16 ar  
    29    10    11 ar  
    30    11    14 1   
    31    11    15 ar  
    32    12    15 ar  
    33    12    16 ar  
    34    12    36 1   
    35    13    37 1   
    36    17    38 1   
    37    17    39 2   
    38    17    41 2   
    39    25    38 1   
    40    26    38 1   
    41    27    38 1   
    42    33    40 1   
    43    34    40 1   
@<TRIPOS>SUBSTRUCTURE
     1 WXA         1 TEMP              0 ****  ****    0 ROOT
