@<TRIPOS>MOLECULE
WXA
   41    43     1     0     0
SMALL
No Charge or Current Charge


@<TRIPOS>ATOM
      1 C10        -44.8310   -28.0440     1.8720 c6         1 WXA       0.211800
      2 C11        -43.8820   -28.6690     0.8180 c6         1 WXA      -0.090400
      3 C12        -43.2260   -29.9440     1.3830 c6         1 WXA      -0.052400
      4 C13        -44.3240   -31.0190     1.6510 c6         1 WXA      -0.315700
      5 C18        -45.6990   -30.4220     2.0630 c6         1 WXA       0.246800
      6 C01        -50.3140   -29.2000     2.4460 c3         1 WXA      -0.088100
      7 C03        -48.3890   -29.2150     4.1470 cc         1 WXA      -0.098400
      8 C04        -49.2240   -29.2210     5.2580 cd         1 WXA      -0.166100
      9 C06        -47.1420   -28.8790     6.0380 ca         1 WXA       0.149500
     10 C07        -47.0570   -29.0120     4.6720 ca         1 WXA      -0.206800
     11 C08        -45.7940   -28.9040     4.0480 ca         1 WXA       0.409900
     12 C20        -44.8830   -28.5330     6.1280 ca         1 WXA       0.168900
     13 N05        -48.4590   -29.0190     6.4290 na         1 WXA      -0.324400
     14 N09        -45.5850   -29.0680     2.6650 nh         1 WXA      -0.774300
     15 N19        -44.6980   -28.6520     4.7940 nb         1 WXA      -0.281000
     16 N21        -46.0550   -28.6380     6.7930 nb         1 WXA      -0.208000
     17 S14        -43.7970   -32.3230     2.8140 s6         1 WXA       1.093000
     18 H101       -44.2210   -27.4240     2.5460 h1         1 WXA       0.064700
     19 H102       -45.5310   -27.3590     1.3710 h1         1 WXA       0.064700
     20 H111       -44.4430   -28.9130    -0.0940 hc         1 WXA       0.047200
     21 H112       -43.1160   -27.9370     0.5280 hc         1 WXA       0.047200
     22 H121       -42.4730   -30.3310     0.6820 hc         1 WXA       0.061200
     23 H122       -42.6940   -29.6900     2.3110 hc         1 WXA       0.061200
     24 H131       -44.4890   -31.5770     0.7220 h1         1 WXA       0.089700
     25 H151       -41.9900   -33.8470     2.7950 h1         1 WXA       0.103033
     26 H153       -42.5130   -33.3810     1.1300 h1         1 WXA       0.103033
     27 H152       -41.5320   -32.2340     2.1250 h1         1 WXA       0.103033
     28 H182       -46.3270   -30.3510     1.1620 h1         1 WXA       0.074200
     29 H181       -46.2360   -31.1050     2.7410 h1         1 WXA       0.074200
     30 H012       -50.5310   -29.2750     1.3740 hc         1 WXA       0.033700
     31 H013       -50.8750   -29.9870     2.9630 hc         1 WXA       0.033700
     32 H011       -50.6710   -28.2250     2.8000 hc         1 WXA       0.033700
     33 H022       -48.4920   -30.3320     2.3230 hc         1 WXA       0.049200
     34 H021       -48.2750   -28.5990     2.0960 hc         1 WXA       0.049200
     35 H041       -50.3040   -29.3410     5.2980 h4         1 WXA       0.217000
     36 H201       -43.9970   -28.3340     6.7280 h5         1 WXA       0.044100
     37 H051       -48.8050   -28.9720     7.3830 hn         1 WXA       0.363000
     38 C15        -42.2910   -33.0230     2.1400 c3         1 WXA      -0.339100
     39 O16        -43.4510   -31.6980     4.0970 o          1 WXA      -0.520500
     40 C02        -48.8000   -29.3500     2.6980 c3         1 WXA      -0.011200
     41 O17        -44.8140   -33.3810     2.7870 o          1 WXA      -0.520500
@<TRIPOS>BOND
     1     1     2 1   
     2     1    14 1   
     3     1    18 1   
     4     1    19 1   
     5     2     3 1   
     6     2    20 1   
     7     2    21 1   
     8     3     4 1   
     9     3    22 1   
    10     3    23 1   
    11     4     5 1   
    12     4    17 1   
    13     4    24 1   
    14     5    14 1   
    15     5    28 1   
    16     5    29 1   
    17     6    30 1   
    18     6    31 1   
    19     6    32 1   
    20     6    40 1   
    21     7     8 2   
    22     7    10 1   
    23     7    40 1   
    24     8    13 1   
    25     8    35 1   
    26     9    10 ar  
    27     9    13 1   
    28     9    16 ar  
    29    10    11 ar  
    30    11    14 1   
    31    11    15 ar  
    32    12    15 ar  
    33    12    16 ar  
    34    12    36 1   
    35    13    37 1   
    36    17    38 1   
    37    17    39 2   
    38    17    41 2   
    39    25    38 1   
    40    26    38 1   
    41    27    38 1   
    42    33    40 1   
    43    34    40 1   
@<TRIPOS>SUBSTRUCTURE
     1 WXA         1 TEMP              0 ****  ****    0 ROOT
