@<TRIPOS>MOLECULE
WXB
   37    39     1     0     0
SMALL
abcg2


@<TRIPOS>ATOM
      1 C18        -55.8120   -32.2980     7.4710 c          1 WXB       0.603600
      2 C15        -57.5390   -30.9570     8.6480 c          1 WXB       0.629000
      3 C13        -55.5580   -29.8510     7.7830 ca         1 WXB       0.529900
      4 C11        -53.7710   -28.6800     6.9990 ca         1 WXB       0.444900
      5 C10        -53.1670   -29.8260     6.4710 ca         1 WXB      -0.237600
      6 C20        -55.0500   -31.0580     7.2860 ca         1 WXB      -0.267600
      7 C02        -51.9150   -29.6800     5.6580 c          1 WXB       0.615700
      8 C04        -49.6230   -30.2820     5.1840 c3         1 WXB       0.104500
      9 C05        -48.8030   -28.9980     5.3760 c3         1 WXB      -0.097900
     10 C06        -48.8100   -28.4320     6.8010 c3         1 WXB      -0.071400
     11 C07        -48.6570   -29.4640     7.9290 c3         1 WXB      -0.071400
     12 C08        -49.9800   -30.1060     8.3620 c3         1 WXB      -0.097900
     13 C09        -50.6400   -31.0170     7.3300 c3         1 WXB       0.104500
     14 C21        -53.8290   -31.0330     6.6240 ca         1 WXB       0.043000
     15 N03        -50.8210   -30.3750     6.0220 n          1 WXB      -0.395800
     16 N12        -54.9300   -28.6830     7.6500 nb         1 WXB      -0.722000
     17 N14        -56.7670   -29.8450     8.4400 ns         1 WXB      -0.589900
     18 N17        -57.0060   -32.1340     8.1500 ns         1 WXB      -0.471500
     19 O01        -51.9420   -28.9450     4.6650 o          1 WXB      -0.596100
     20 O16        -58.6120   -30.9240     9.2240 o          1 WXB      -0.538000
     21 O19        -55.4570   -33.3970     7.0770 o          1 WXB      -0.518000
     22 H111       -53.2850   -27.7180     6.8880 h4         1 WXB       0.042100
     23 H042       -49.0160   -31.1510     5.4340 h1         1 WXB       0.054200
     24 H051       -47.7760   -29.2280     5.0780 hc         1 WXB       0.048700
     25 H052       -49.1630   -28.2270     4.6930 hc         1 WXB       0.048700
     26 H062       -48.0040   -27.6970     6.8700 hc         1 WXB       0.041450
     27 H061       -49.7390   -27.8770     6.9650 hc         1 WXB       0.041450
     28 H071       -47.9390   -30.2390     7.6390 hc         1 WXB       0.041450
     29 H072       -48.2320   -28.9650     8.8030 hc         1 WXB       0.041450
     30 H081       -50.6840   -29.3110     8.6280 hc         1 WXB       0.048700
     31 H082       -49.8210   -30.7040     9.2640 hc         1 WXB       0.048700
     32 H092       -51.6000   -31.3550     7.7080 h1         1 WXB       0.054200
     33 H091       -50.0280   -31.9050     7.1630 h1         1 WXB       0.054200
     34 H211       -53.4220   -31.9550     6.2290 ha         1 WXB       0.150000
     35 H141       -57.1210   -28.9640     8.7880 hn         1 WXB       0.478000
     36 H171       -57.5660   -32.9640     8.3010 hn         1 WXB       0.349500
     37 H041       -49.9250   -30.3770     4.1420 h1         1 WXB       0.054200
@<TRIPOS>BOND
     1     1     6 1   
     2     1    18 1   
     3     1    21 2   
     4     2    17 1   
     5     2    18 1   
     6     2    20 2   
     7     3     6 ar  
     8     3    16 ar  
     9     3    17 1   
    10     4     5 ar  
    11     4    16 ar  
    12     4    22 1   
    13     5     7 1   
    14     5    14 ar  
    15     6    14 ar  
    16     7    15 1   
    17     7    19 2   
    18     8     9 1   
    19     8    15 1   
    20     8    23 1   
    21     8    37 1   
    22     9    10 1   
    23     9    24 1   
    24     9    25 1   
    25    10    11 1   
    26    10    26 1   
    27    10    27 1   
    28    11    12 1   
    29    11    28 1   
    30    11    29 1   
    31    12    13 1   
    32    12    30 1   
    33    12    31 1   
    34    13    15 1   
    35    13    32 1   
    36    13    33 1   
    37    14    34 1   
    38    17    35 1   
    39    18    36 1   
@<TRIPOS>SUBSTRUCTURE
     1 WXB         1 TEMP              0 ****  ****    0 ROOT
