@<TRIPOS>MOLECULE
WXB
   37    39     1     0     0
SMALL
No Charge or Current Charge


@<TRIPOS>ATOM
      1 C18        -55.7340   -32.3490     7.6430 c          1 WXB       0.603600
      2 C15        -57.6220   -31.1010     8.5840 c          1 WXB       0.629000
      3 C13        -55.7390   -29.8980     7.6560 ca         1 WXB       0.529900
      4 C11        -54.1020   -28.5450     6.8190 ca         1 WXB       0.444900
      5 C10        -53.3130   -29.6530     6.4650 ca         1 WXB      -0.237600
      6 C20        -55.0680   -31.0590     7.3200 ca         1 WXB      -0.267600
      7 C02        -52.0170   -29.4030     5.7660 c          1 WXB       0.615700
      8 C04        -49.7240   -30.2200     5.1570 c3         1 WXB       0.104500
      9 C05        -48.6960   -29.0840     5.3640 c3         1 WXB      -0.097900
     10 C06        -48.5180   -28.5550     6.8070 c3         1 WXB      -0.071400
     11 C07        -48.4670   -29.6340     7.9130 c3         1 WXB      -0.071400
     12 C08        -49.8630   -30.0920     8.3990 c3         1 WXB      -0.097900
     13 C09        -50.7030   -30.8860     7.3780 c3         1 WXB       0.104500
     14 C21        -53.8170   -30.9510     6.6940 ca         1 WXB       0.043000
     15 N03        -50.8880   -30.2000     6.0710 n          1 WXB      -0.395800
     16 N12        -55.3100   -28.6580     7.4240 nb         1 WXB      -0.722000
     17 N14        -56.9620   -29.9670     8.2610 ns         1 WXB      -0.589900
     18 N17        -56.9540   -32.2380     8.2480 ns         1 WXB      -0.471500
     19 O01        -51.9670   -28.5600     4.8800 o          1 WXB      -0.596100
     20 O16        -58.7100   -31.1000     9.1230 o          1 WXB      -0.538000
     21 O19        -55.2390   -33.4350     7.3930 o          1 WXB      -0.518000
     22 H111       -53.7550   -27.5290     6.6290 h4         1 WXB       0.042100
     23 H042       -49.2030   -31.1770     5.2970 h1         1 WXB       0.054200
     24 H051       -47.7260   -29.4290     4.9840 hc         1 WXB       0.048700
     25 H052       -48.9850   -28.2370     4.7300 hc         1 WXB       0.048700
     26 H062       -47.5890   -27.9730     6.8410 hc         1 WXB       0.041450
     27 H061       -49.3240   -27.8460     7.0340 hc         1 WXB       0.041450
     28 H071       -47.8790   -30.4960     7.5750 hc         1 WXB       0.041450
     29 H072       -47.9330   -29.2140     8.7750 hc         1 WXB       0.041450
     30 H081       -50.4360   -29.2140     8.7210 hc         1 WXB       0.048700
     31 H082       -49.7340   -30.7160     9.2920 hc         1 WXB       0.048700
     32 H092       -51.6620   -31.1130     7.8520 h1         1 WXB       0.054200
     33 H091       -50.2110   -31.8510     7.1950 h1         1 WXB       0.054200
     34 H211       -53.2660   -31.8390     6.3830 ha         1 WXB       0.150000
     35 H141       -57.4040   -29.0870     8.4800 hn         1 WXB       0.478000
     36 H171       -57.4170   -33.1040     8.4740 hn         1 WXB       0.349500
     37 H041       -50.0730   -30.2090     4.1160 h1         1 WXB       0.054200
@<TRIPOS>BOND
     1     1     6 1   
     2     1    18 1   
     3     1    21 2   
     4     2    17 1   
     5     2    18 1   
     6     2    20 2   
     7     3     6 ar  
     8     3    16 ar  
     9     3    17 1   
    10     4     5 ar  
    11     4    16 ar  
    12     4    22 1   
    13     5     7 1   
    14     5    14 ar  
    15     6    14 ar  
    16     7    15 1   
    17     7    19 2   
    18     8     9 1   
    19     8    15 1   
    20     8    23 1   
    21     8    37 1   
    22     9    10 1   
    23     9    24 1   
    24     9    25 1   
    25    10    11 1   
    26    10    26 1   
    27    10    27 1   
    28    11    12 1   
    29    11    28 1   
    30    11    29 1   
    31    12    13 1   
    32    12    30 1   
    33    12    31 1   
    34    13    15 1   
    35    13    32 1   
    36    13    33 1   
    37    14    34 1   
    38    17    35 1   
    39    18    36 1   
@<TRIPOS>SUBSTRUCTURE
     1 WXB         1 TEMP              0 ****  ****    0 ROOT
