@<TRIPOS>MOLECULE
WXC
   21    22     1     0     0
SMALL
No Charge or Current Charge


@<TRIPOS>ATOM
      1 C4          -5.2420    -6.4370     8.2590 ca         1 WXC       0.217300
      2 C5          -5.0130    -7.9350     8.0650 c6         1 WXC      -0.144700
      3 C6          -6.3290    -8.7490     8.0800 c6         1 WXC      -0.067400
      4 C7          -7.2060    -8.3410     9.2850 c6         1 WXC      -0.178400
      5 C8          -7.5120    -6.8390     9.2920 c          1 WXC       0.608700
      6 N2          -5.5420    -3.7130     8.5470 nb         1 WXC      -0.260000
      7 C3          -6.4170    -5.9290     8.8400 ca         1 WXC      -0.365600
      8 N3          -4.2540    -5.6190     7.8460 nb         1 WXC      -0.274000
      9 C1          -4.4660    -4.3080     8.0150 ca         1 WXC       0.411900
     10 C2          -6.5280    -4.5320     8.9620 ca         1 WXC       0.208900
     11 O1          -8.6160    -6.4140     9.6070 o          1 WXC      -0.539100
     12 H5          -4.3510    -8.2960     8.8640 hc         1 WXC       0.070200
     13 H4          -4.4810    -8.1180     7.1210 hc         1 WXC       0.070200
     14 H6          -6.8830    -8.5730     7.1470 hc         1 WXC       0.052200
     15 H7          -6.1070    -9.8250     8.1150 hc         1 WXC       0.052200
     16 H8          -8.1350    -8.9210     9.3600 hc         1 WXC       0.070700
     17 H9          -6.6060    -8.5350    10.1840 hc         1 WXC       0.070700
     18 H1          -2.5590    -3.8950     7.4140 hn         1 WXC       0.509500
     19 H2          -3.4790    -2.5200     7.9180 hn         1 WXC       0.509500
     20 H3          -7.4070    -4.0580     9.3960 h4         1 WXC       0.041100
     21 N1          -3.4720    -3.4870     7.6010 nv         1 WXC      -1.063900
@<TRIPOS>BOND
     1     1     2 1   
     2     1     7 ar  
     3     1     8 ar  
     4     2     3 1   
     5     2    12 1   
     6     2    13 1   
     7     3     4 1   
     8     3    14 1   
     9     3    15 1   
    10     4     5 1   
    11     4    16 1   
    12     4    17 1   
    13     5     7 1   
    14     5    11 2   
    15     6     9 ar  
    16     6    10 ar  
    17     7    10 ar  
    18     8     9 ar  
    19     9    21 1   
    20    10    20 1   
    21    18    21 1   
    22    19    21 1   
@<TRIPOS>SUBSTRUCTURE
     1 WXC         1 TEMP              0 ****  ****    0 ROOT
