@<TRIPOS>MOLECULE
WXC
   21    22     1     0     0
SMALL
abcg2


@<TRIPOS>ATOM
      1 C4          -5.2110    -6.4570     8.2960 ca         1 WXC       0.217300
      2 C5          -4.9950    -7.9300     8.1450 c6         1 WXC      -0.144700
      3 C6          -6.3150    -8.6800     8.0440 c6         1 WXC      -0.067400
      4 C7          -7.2230    -8.3310     9.2160 c6         1 WXC      -0.178400
      5 C8          -7.4710    -6.8480     9.3360 c          1 WXC       0.608700
      6 N2          -5.5540    -3.7560     8.5620 nb         1 WXC      -0.260000
      7 C3          -6.3980    -5.9690     8.8620 ca         1 WXC      -0.365600
      8 N3          -4.2530    -5.6450     7.8900 nb         1 WXC      -0.274000
      9 C1          -4.4520    -4.3290     8.0410 ca         1 WXC       0.411900
     10 C2          -6.4970    -4.5790     8.9590 ca         1 WXC       0.208900
     11 O1          -8.4950    -6.4030     9.8220 o          1 WXC      -0.539100
     12 H5          -4.4390    -8.2800     9.0230 hc         1 WXC       0.070200
     13 H4          -4.3560    -8.1140     7.2810 hc         1 WXC       0.070200
     14 H6          -6.8100    -8.4270     7.1030 hc         1 WXC       0.052200
     15 H7          -6.1320    -9.7550     8.0250 hc         1 WXC       0.052200
     16 H8          -8.1810    -8.8500     9.1560 hc         1 WXC       0.070700
     17 H9          -6.7480    -8.6530    10.1520 hc         1 WXC       0.070700
     18 H1          -2.6300    -3.8820     7.2510 hn         1 WXC       0.509500
     19 H2          -3.5770    -2.5160     7.7330 hn         1 WXC       0.509500
     20 H3          -7.3880    -4.1270     9.3820 h4         1 WXC       0.041100
     21 N1          -3.4810    -3.5120     7.6370 nv         1 WXC      -1.063900
@<TRIPOS>BOND
     1     1     2 1   
     2     1     7 ar  
     3     1     8 ar  
     4     2     3 1   
     5     2    12 1   
     6     2    13 1   
     7     3     4 1   
     8     3    14 1   
     9     3    15 1   
    10     4     5 1   
    11     4    16 1   
    12     4    17 1   
    13     5     7 1   
    14     5    11 2   
    15     6     9 ar  
    16     6    10 ar  
    17     7    10 ar  
    18     8     9 ar  
    19     9    21 1   
    20    10    20 1   
    21    18    21 1   
    22    19    21 1   
@<TRIPOS>SUBSTRUCTURE
     1 WXC         1 TEMP              0 ****  ****    0 ROOT
