@<TRIPOS>MOLECULE
WXD
   41    43     1     0     0
SMALL
No Charge or Current Charge


@<TRIPOS>ATOM
      1 C10        -50.7100   -29.6660     5.1210 ca         1 WXD       0.398900
      2 C13        -51.9070   -31.4640     8.2340 c6         1 WXD      -0.074400
      3 C15        -53.1910   -29.3010     7.9450 c6         1 WXD      -0.287700
      4 C21        -49.3340   -29.3520     5.1270 ca         1 WXD      -0.205800
      5 C02        -48.6050   -29.2610     7.6840 c3         1 WXD      -0.002200
      6 C03        -48.3750   -29.1900     6.1970 cc         1 WXD      -0.097400
      7 C04        -47.1700   -28.8950     5.5750 cd         1 WXD      -0.172100
      8 C06        -48.6890   -29.1330     3.9320 ca         1 WXD       0.135500
      9 C08        -50.6590   -29.4900     2.8260 ca         1 WXD       0.165900
     10 C12        -51.4730   -31.3650     6.7510 c6         1 WXD       0.205800
     11 C14        -53.2630   -30.7630     8.4690 c6         1 WXD      -0.053400
     12 C16        -52.7650   -29.2630     6.4610 c6         1 WXD       0.228800
     13 N05        -47.3560   -28.8600     4.1740 na         1 WXD      -0.323400
     14 N07        -49.3410   -29.1970     2.7570 nb         1 WXD      -0.212000
     15 N09        -51.3760   -29.7300     3.9470 nb         1 WXD      -0.275000
     16 N11        -51.4590   -29.9540     6.2780 nh         1 WXD      -0.757300
     17 H132       -51.9720   -32.5190     8.5310 hc         1 WXD       0.053200
     18 H131       -51.1440   -31.0060     8.8750 hc         1 WXD       0.053200
     19 H151       -52.4580   -28.7390     8.5360 h1         1 WXD       0.100700
     20 H203       -55.3150   -29.4130    10.2120 h1         1 WXD       0.103700
     21 H201       -54.2550   -27.9650    10.4350 h1         1 WXD       0.103700
     22 H202       -56.0080   -27.7550    10.0570 h1         1 WXD       0.103700
     23 H012       -49.5160   -28.1400     9.3170 hc         1 WXD       0.038367
     24 H011       -48.7310   -27.1220     8.0890 hc         1 WXD       0.038367
     25 H013       -50.2990   -27.8780     7.7440 hc         1 WXD       0.038367
     26 H022       -49.1700   -30.1640     7.9320 hc         1 WXD       0.039200
     27 H021       -47.6430   -29.3600     8.2000 hc         1 WXD       0.039200
     28 H041       -46.2030   -28.6930     6.0300 h4         1 WXD       0.218000
     29 H081       -51.1980   -29.5430     1.8810 h5         1 WXD       0.050100
     30 H122       -52.1620   -31.9590     6.1330 h1         1 WXD       0.051200
     31 H121       -50.4720   -31.8110     6.6440 h1         1 WXD       0.051200
     32 H141       -53.5030   -30.7850     9.5410 hc         1 WXD       0.052700
     33 H142       -54.0590   -31.3180     7.9510 hc         1 WXD       0.052700
     34 H162       -52.6790   -28.2150     6.1330 h1         1 WXD       0.074700
     35 H161       -53.5380   -29.7400     5.8380 h1         1 WXD       0.074700
     36 H051       -46.6510   -28.6630     3.4690 hn         1 WXD       0.365000
     37 S17        -54.7480   -28.3770     8.1560 s6         1 WXD       1.097000
     38 C20        -55.1210   -28.3790     9.9090 c3         1 WXD      -0.338100
     39 C01        -49.3340   -28.0240     8.2420 c3         1 WXD      -0.090100
     40 O18        -55.8170   -29.1220     7.4790 o          1 WXD      -0.520500
     41 O19        -54.4970   -26.9830     7.7700 o          1 WXD      -0.520500
@<TRIPOS>BOND
     1     1     4 ar  
     2     1    15 ar  
     3     1    16 1   
     4     2    10 1   
     5     2    11 1   
     6     2    17 1   
     7     2    18 1   
     8     3    11 1   
     9     3    12 1   
    10     3    19 1   
    11     3    37 1   
    12     4     6 1   
    13     4     8 ar  
    14     5     6 1   
    15     5    26 1   
    16     5    27 1   
    17     5    39 1   
    18     6     7 2   
    19     7    13 1   
    20     7    28 1   
    21     8    13 1   
    22     8    14 ar  
    23     9    14 ar  
    24     9    15 ar  
    25     9    29 1   
    26    10    16 1   
    27    10    30 1   
    28    10    31 1   
    29    11    32 1   
    30    11    33 1   
    31    12    16 1   
    32    12    34 1   
    33    12    35 1   
    34    13    36 1   
    35    20    38 1   
    36    21    38 1   
    37    22    38 1   
    38    23    39 1   
    39    24    39 1   
    40    25    39 1   
    41    37    38 1   
    42    37    40 2   
    43    37    41 2   
@<TRIPOS>SUBSTRUCTURE
     1 WXD         1 TEMP              0 ****  ****    0 ROOT
