@<TRIPOS>MOLECULE
WXD
   41    43     1     0     0
SMALL
abcg2


@<TRIPOS>ATOM
      1 C10        -50.8000   -29.3770     5.2500 ca         1 WXD       0.398900
      2 C13        -51.6920   -30.9870     8.4700 c6         1 WXD      -0.074400
      3 C15        -53.3790   -29.2450     7.8790 c6         1 WXD      -0.287700
      4 C21        -49.3870   -29.3870     5.2220 ca         1 WXD      -0.205800
      5 C02        -48.2720   -29.6020     7.6440 c3         1 WXD      -0.002200
      6 C03        -48.2790   -29.5200     6.1460 cc         1 WXD      -0.097400
      7 C04        -47.1450   -29.3970     5.3860 cd         1 WXD      -0.172100
      8 C06        -48.8240   -29.1460     3.9420 ca         1 WXD       0.135500
      9 C08        -50.8110   -28.7790     3.0150 ca         1 WXD       0.165900
     10 C12        -51.2760   -31.0020     7.0090 c6         1 WXD       0.205800
     11 C14        -53.1560   -30.5660     8.6130 c6         1 WXD      -0.053400
     12 C16        -52.9320   -29.3230     6.4140 c6         1 WXD       0.228800
     13 N05        -47.4720   -29.1900     4.0600 na         1 WXD      -0.323400
     14 N07        -49.5010   -28.8530     2.8240 nb         1 WXD      -0.212000
     15 N09        -51.4800   -29.0310     4.1470 nb         1 WXD      -0.275000
     16 N11        -51.5230   -29.6940     6.3850 nh         1 WXD      -0.757300
     17 H132       -51.5530   -31.9820     8.8960 hc         1 WXD       0.053200
     18 H131       -51.0520   -30.2970     9.0250 hc         1 WXD       0.053200
     19 H151       -52.8460   -28.4310     8.3760 h1         1 WXD       0.100700
     20 H203       -55.4610   -29.4660    10.1330 h1         1 WXD       0.103700
     21 H201       -54.8010   -27.7950    10.0560 h1         1 WXD       0.103700
     22 H202       -56.5150   -28.1070     9.6400 h1         1 WXD       0.103700
     23 H012       -48.8520   -28.4580     9.4000 hc         1 WXD       0.038367
     24 H011       -48.3280   -27.4650     8.0310 hc         1 WXD       0.038367
     25 H013       -49.9210   -28.2320     8.0110 hc         1 WXD       0.038367
     26 H022       -48.7940   -30.4920     7.9980 hc         1 WXD       0.039200
     27 H021       -47.2340   -29.7140     7.9670 hc         1 WXD       0.039200
     28 H041       -46.1140   -29.4190     5.6990 h4         1 WXD       0.218000
     29 H081       -51.4140   -28.5030     2.1570 h5         1 WXD       0.050100
     30 H122       -51.8600   -31.7620     6.4690 h1         1 WXD       0.051200
     31 H121       -50.2300   -31.2620     6.8940 h1         1 WXD       0.051200
     32 H141       -53.4190   -30.4750     9.6670 hc         1 WXD       0.052700
     33 H142       -53.8010   -31.3310     8.1730 hc         1 WXD       0.052700
     34 H162       -53.0530   -28.3600     5.9280 h1         1 WXD       0.074700
     35 H161       -53.5480   -30.0550     5.8770 h1         1 WXD       0.074700
     36 H051       -46.8190   -29.0210     3.3110 hn         1 WXD       0.365000
     37 S17        -55.1070   -28.7270     7.9060 s6         1 WXD       1.097000
     38 C20        -55.5020   -28.5070     9.6240 c3         1 WXD      -0.338100
     39 C01        -48.8810   -28.3640     8.3120 c3         1 WXD      -0.090100
     40 O18        -55.9340   -29.8010     7.3750 o          1 WXD      -0.520500
     41 O19        -55.1970   -27.4300     7.2530 o          1 WXD      -0.520500
@<TRIPOS>BOND
     1     1     4 ar  
     2     1    15 ar  
     3     1    16 1   
     4     2    10 1   
     5     2    11 1   
     6     2    17 1   
     7     2    18 1   
     8     3    11 1   
     9     3    12 1   
    10     3    19 1   
    11     3    37 1   
    12     4     6 1   
    13     4     8 ar  
    14     5     6 1   
    15     5    26 1   
    16     5    27 1   
    17     5    39 1   
    18     6     7 2   
    19     7    13 1   
    20     7    28 1   
    21     8    13 1   
    22     8    14 ar  
    23     9    14 ar  
    24     9    15 ar  
    25     9    29 1   
    26    10    16 1   
    27    10    30 1   
    28    10    31 1   
    29    11    32 1   
    30    11    33 1   
    31    12    16 1   
    32    12    34 1   
    33    12    35 1   
    34    13    36 1   
    35    20    38 1   
    36    21    38 1   
    37    22    38 1   
    38    23    39 1   
    39    24    39 1   
    40    25    39 1   
    41    37    38 1   
    42    37    40 2   
    43    37    41 2   
@<TRIPOS>SUBSTRUCTURE
     1 WXD         1 TEMP              0 ****  ****    0 ROOT
