@<TRIPOS>MOLECULE
WXF
   33    35     1     0     0
SMALL
abcg2


@<TRIPOS>ATOM
      1 C18        -24.8430    -7.0620   -21.6350 c6         1 WXF       0.134600
      2 C17        -23.9740    -5.8480   -21.9210 c6         1 WXF       0.059000
      3 C15        -19.3750    -7.2840   -22.0590 ca         1 WXF      -0.136000
      4 C14        -18.0840    -7.4280   -21.5580 ca         1 WXF       0.335900
      5 C12        -18.3190    -5.6140   -20.2700 ca         1 WXF       0.347500
      6 C01        -23.6270    -8.0190   -18.2990 c3         1 WXF      -0.087100
      7 C02        -23.5230    -7.6670   -19.7670 c6         1 WXF       0.143300
      8 C03        -22.6010    -6.4710   -20.0010 c6         1 WXF       0.078000
      9 C06        -20.2000    -6.2410   -21.6240 ca         1 WXF      -0.061600
     10 C07        -19.6470    -5.3680   -20.6980 ca         1 WXF       0.079400
     11 C09        -19.1690    -3.8360   -19.2970 cc         1 WXF       0.646100
     12 N04        -22.6260    -6.0810   -21.4070 n          1 WXF      -0.396800
     13 N08        -20.1500    -4.2400   -20.0650 nd         1 WXF      -0.654100
     14 N11        -18.0450    -4.6040   -19.3650 na         1 WXF      -0.436300
     15 N13        -17.5310    -6.5950   -20.6560 nb         1 WXF      -0.650000
     16 O10        -19.1760    -2.7850   -18.4890 oh         1 WXF      -0.601600
     17 O16        -21.6450    -5.8370   -23.4430 o          1 WXF      -0.599100
     18 O19        -24.8410    -7.3800   -20.2460 os         1 WXF      -0.459000
     19 H181       -25.8780    -6.8610   -21.9120 h1         1 WXF       0.055200
     20 H182       -24.4790    -7.9220   -22.2120 h1         1 WXF       0.055200
     21 H171       -23.9150    -5.6570   -22.9880 h1         1 WXF       0.072700
     22 H172       -24.3900    -4.9690   -21.4210 h1         1 WXF       0.072700
     23 H141       -17.4630    -8.2480   -21.8950 h4         1 WXF       0.029100
     24 H013       -22.6440    -8.2830   -17.9040 hc         1 WXF       0.047033
     25 H011       -24.0140    -7.1720   -17.7300 hc         1 WXF       0.047033
     26 H012       -24.2950    -8.8690   -18.1600 hc         1 WXF       0.047033
     27 H021       -23.1280    -8.5200   -20.3370 h1         1 WXF       0.039700
     28 H031       -21.5900    -6.7320   -19.7040 h1         1 WXF       0.064200
     29 H032       -22.9380    -5.6280   -19.3910 h1         1 WXF       0.064200
     30 H111       -17.1850    -4.4530   -18.8580 hn         1 WXF       0.382000
     31 H101       -20.0350    -2.3360   -18.5600 ho         1 WXF       0.514000
     32 C05        -21.5590    -6.0420   -22.2290 c          1 WXF       0.627700
     33 H151       -19.7430    -7.9930   -22.7880 ha         1 WXF       0.137000
@<TRIPOS>BOND
     1     1     2 1   
     2     1    18 1   
     3     1    19 1   
     4     1    20 1   
     5     2    12 1   
     6     2    21 1   
     7     2    22 1   
     8     3     4 ar  
     9     3     9 ar  
    10     3    33 1   
    11     4    15 ar  
    12     4    23 1   
    13     5    10 ar  
    14     5    14 1   
    15     5    15 ar  
    16     6     7 1   
    17     6    24 1   
    18     6    25 1   
    19     6    26 1   
    20     7     8 1   
    21     7    18 1   
    22     7    27 1   
    23     8    12 1   
    24     8    28 1   
    25     8    29 1   
    26     9    10 ar  
    27     9    32 1   
    28    10    13 1   
    29    11    13 2   
    30    11    14 1   
    31    11    16 1   
    32    12    32 1   
    33    14    30 1   
    34    16    31 1   
    35    17    32 2   
@<TRIPOS>SUBSTRUCTURE
     1 WXF         1 TEMP              0 ****  ****    0 ROOT
