@<TRIPOS>MOLECULE
WXF
   33    35     1     0     0
SMALL
No Charge or Current Charge


@<TRIPOS>ATOM
      1 C18        -24.9030    -6.9310   -21.6070 c6         1 WXF       0.134600
      2 C17        -23.9460    -5.7430   -21.8810 c6         1 WXF       0.059000
      3 C15        -19.1530    -7.2740   -22.2040 ca         1 WXF      -0.136000
      4 C14        -17.8330    -7.3150   -21.7060 ca         1 WXF       0.335900
      5 C12        -18.2610    -5.5710   -20.2820 ca         1 WXF       0.347500
      6 C01        -23.7380    -7.9980   -18.2190 c3         1 WXF      -0.087100
      7 C02        -23.5840    -7.6330   -19.7140 c6         1 WXF       0.143300
      8 C03        -22.5730    -6.4710   -19.9410 c6         1 WXF       0.078000
      9 C06        -20.0800    -6.3380   -21.6860 ca         1 WXF      -0.061600
     10 C07        -19.5780    -5.4550   -20.7060 ca         1 WXF       0.079400
     11 C09        -19.2780    -3.9120   -19.2880 cc         1 WXF       0.646100
     12 N04        -22.5700    -6.0120   -21.3630 n          1 WXF      -0.396800
     13 N08        -20.2290    -4.3850   -20.0830 nd         1 WXF      -0.654100
     14 N11        -18.0940    -4.5890   -19.3710 na         1 WXF      -0.436300
     15 N13        -17.3790    -6.4720   -20.7450 nb         1 WXF      -0.650000
     16 O10        -19.4260    -2.8750   -18.4840 oh         1 WXF      -0.601600
     17 O16        -21.6800    -6.4190   -23.4400 o          1 WXF      -0.599100
     18 O19        -24.8910    -7.2580   -20.1990 os         1 WXF      -0.459000
     19 H181       -25.9260    -6.6670   -21.9080 h1         1 WXF       0.055200
     20 H182       -24.5900    -7.8110   -22.1890 h1         1 WXF       0.055200
     21 H171       -23.9270    -5.5300   -22.9590 h1         1 WXF       0.072700
     22 H172       -24.3410    -4.8450   -21.3860 h1         1 WXF       0.072700
     23 H141       -17.1190    -8.0410   -22.0910 h4         1 WXF       0.029100
     24 H013       -22.7800    -8.3210   -17.7940 hc         1 WXF       0.047033
     25 H011       -24.0930    -7.1420   -17.6340 hc         1 WXF       0.047033
     26 H012       -24.4530    -8.8190   -18.0870 hc         1 WXF       0.047033
     27 H021       -23.2450    -8.5240   -20.2620 h1         1 WXF       0.039700
     28 H031       -21.5770    -6.8170   -19.6340 h1         1 WXF       0.064200
     29 H032       -22.8380    -5.6230   -19.2940 h1         1 WXF       0.064200
     30 H111       -17.2570    -4.3780   -18.8560 hn         1 WXF       0.382000
     31 H101       -20.3510    -2.6140   -18.6590 ho         1 WXF       0.514000
     32 C05        -21.4890    -6.2830   -22.2360 c          1 WXF       0.627700
     33 H151       -19.4500    -7.9760   -22.9790 ha         1 WXF       0.137000
@<TRIPOS>BOND
     1     1     2 1   
     2     1    18 1   
     3     1    19 1   
     4     1    20 1   
     5     2    12 1   
     6     2    21 1   
     7     2    22 1   
     8     3     4 ar  
     9     3     9 ar  
    10     3    33 1   
    11     4    15 ar  
    12     4    23 1   
    13     5    10 ar  
    14     5    14 1   
    15     5    15 ar  
    16     6     7 1   
    17     6    24 1   
    18     6    25 1   
    19     6    26 1   
    20     7     8 1   
    21     7    18 1   
    22     7    27 1   
    23     8    12 1   
    24     8    28 1   
    25     8    29 1   
    26     9    10 ar  
    27     9    32 1   
    28    10    13 1   
    29    11    13 2   
    30    11    14 1   
    31    11    16 1   
    32    12    32 1   
    33    14    30 1   
    34    16    31 1   
    35    17    32 2   
@<TRIPOS>SUBSTRUCTURE
     1 WXF         1 TEMP              0 ****  ****    0 ROOT
