@<TRIPOS>MOLECULE
WXG
   31    33     1     0     0
SMALL
abcg2


@<TRIPOS>ATOM
      1 C10        -45.8670   -29.0180     4.2790 ca         1 WXG       0.294300
      2 C02        -45.0380   -32.2690     2.1830 c          1 WXG       0.564000
      3 C03        -45.8390   -33.1180     1.2120 c5         1 WXG      -0.165400
      4 C04        -45.2580   -32.7720    -0.1620 c5         1 WXG      -0.088400
      5 C05        -44.6620   -31.3710     0.0370 c5         1 WXG       0.097000
      6 C07        -43.6340   -30.2500     2.0760 c3         1 WXG       0.112000
      7 C08        -44.3310   -28.8930     1.9620 c3         1 WXG       0.013600
      8 C12        -44.5890   -29.0040     6.1980 ca         1 WXG       0.151900
      9 C14        -46.7660   -29.3120     6.4620 ca         1 WXG       0.108500
     10 C16        -48.8960   -29.5630     5.9760 cc         1 WXG       0.418700
     11 C18        -46.9930   -29.2310     5.0790 ca         1 WXG      -0.018600
     12 N06        -44.3730   -31.3320     1.4680 n          1 WXG      -0.417800
     13 N11        -44.6730   -28.9050     4.8640 nb         1 WXG      -0.225000
     14 N13        -45.5820   -29.2060     7.0630 nb         1 WXG      -0.177000
     15 N15        -48.0010   -29.5240     7.0120 na         1 WXG      -0.421300
     16 N17        -48.3370   -29.3920     4.8020 nd         1 WXG      -0.539100
     17 S09        -46.0530   -28.8910     2.5410 ss         1 WXG      -0.307300
     18 H031       -46.8870   -32.8170     1.3040 hc         1 WXG       0.078200
     19 H032       -45.7720   -34.1730     1.4760 hc         1 WXG       0.078200
     20 H041       -45.9980   -32.7880    -0.9590 hc         1 WXG       0.056200
     21 H042       -44.4650   -33.4750    -0.4200 hc         1 WXG       0.056200
     22 H052       -43.7480   -31.2090    -0.5360 h1         1 WXG       0.044700
     23 H051       -45.3760   -30.5850    -0.2300 h1         1 WXG       0.044700
     24 H072       -43.4830   -30.5040     3.1210 h1         1 WXG       0.071200
     25 H071       -42.6550   -30.1660     1.5950 h1         1 WXG       0.071200
     26 H081       -43.7690   -28.1410     2.5120 h1         1 WXG       0.081200
     27 H082       -44.4080   -28.5710     0.9240 h1         1 WXG       0.081200
     28 H121       -43.5940   -28.9090     6.6180 h5         1 WXG       0.051100
     29 H161       -49.9490   -29.7220     6.1510 h5         1 WXG       0.069800
     30 H151       -48.2150   -29.6360     7.9920 hn         1 WXG       0.372000
     31 O01        -45.0080   -32.3960     3.4050 o          1 WXG      -0.554000
@<TRIPOS>BOND
     1     1    11 ar  
     2     1    13 ar  
     3     1    17 1   
     4     2     3 1   
     5     2    12 1   
     6     2    31 2   
     7     3     4 1   
     8     3    18 1   
     9     3    19 1   
    10     4     5 1   
    11     4    20 1   
    12     4    21 1   
    13     5    12 1   
    14     5    22 1   
    15     5    23 1   
    16     6     7 1   
    17     6    12 1   
    18     6    24 1   
    19     6    25 1   
    20     7    17 1   
    21     7    26 1   
    22     7    27 1   
    23     8    13 ar  
    24     8    14 ar  
    25     8    28 1   
    26     9    11 ar  
    27     9    14 ar  
    28     9    15 1   
    29    10    15 1   
    30    10    16 2   
    31    10    29 1   
    32    11    16 1   
    33    15    30 1   
@<TRIPOS>SUBSTRUCTURE
     1 WXG         1 TEMP              0 ****  ****    0 ROOT
