@<TRIPOS>MOLECULE
WXG
   31    33     1     0     0
SMALL
No Charge or Current Charge


@<TRIPOS>ATOM
      1 C10        -45.5380   -28.4510     4.0580 ca         1 WXG       0.294300
      2 C02        -44.8930   -32.4600     2.5600 c          1 WXG       0.564000
      3 C03        -46.0680   -33.1040     1.8340 c5         1 WXG      -0.165400
      4 C04        -45.9020   -32.5650     0.3910 c5         1 WXG      -0.088400
      5 C05        -45.5000   -31.0840     0.6760 c5         1 WXG       0.097000
      6 C07        -43.6490   -30.3130     2.3710 c3         1 WXG       0.112000
      7 C08        -43.7550   -28.8540     1.8640 c3         1 WXG       0.013600
      8 C12        -44.7380   -28.3220     6.2170 ca         1 WXG       0.151900
      9 C14        -46.6610   -29.5030     5.8910 ca         1 WXG       0.108500
     10 C16        -48.3830   -30.4320     4.8150 cc         1 WXG       0.418700
     11 C18        -46.6120   -29.2270     4.5480 ca         1 WXG      -0.018600
     12 N06        -44.7400   -31.2190     1.9410 n          1 WXG      -0.417800
     13 N11        -44.5900   -27.9940     4.9090 nb         1 WXG      -0.225000
     14 N13        -45.7340   -29.0620     6.7600 nb         1 WXG      -0.177000
     15 N15        -47.7780   -30.2620     6.0570 na         1 WXG      -0.421300
     16 N17        -47.6830   -29.8020     3.8550 nd         1 WXG      -0.539100
     17 S09        -45.3740   -28.0680     2.3170 ss         1 WXG      -0.307300
     18 H031       -46.9930   -32.6860     2.2480 hc         1 WXG       0.078200
     19 H032       -46.0660   -34.1940     1.9380 hc         1 WXG       0.078200
     20 H041       -46.8130   -32.6490    -0.2120 hc         1 WXG       0.056200
     21 H042       -45.1010   -33.0940    -0.1390 hc         1 WXG       0.056200
     22 H052       -44.8960   -30.6590    -0.1370 h1         1 WXG       0.044700
     23 H051       -46.3850   -30.4520     0.8250 h1         1 WXG       0.044700
     24 H072       -43.6140   -30.3040     3.4680 h1         1 WXG       0.071200
     25 H071       -42.6950   -30.7330     2.0240 h1         1 WXG       0.071200
     26 H081       -42.9410   -28.2650     2.3040 h1         1 WXG       0.081200
     27 H082       -43.6390   -28.8280     0.7730 h1         1 WXG       0.081200
     28 H121       -43.9750   -27.9540     6.9010 h5         1 WXG       0.051100
     29 H161       -49.2940   -31.0040     4.6800 h5         1 WXG       0.069800
     30 H151       -48.1190   -30.6410     6.9310 hn         1 WXG       0.372000
     31 O01        -44.0920   -32.9590     3.3380 o          1 WXG      -0.554000
@<TRIPOS>BOND
     1     1    11 ar  
     2     1    13 ar  
     3     1    17 1   
     4     2     3 1   
     5     2    12 1   
     6     2    31 2   
     7     3     4 1   
     8     3    18 1   
     9     3    19 1   
    10     4     5 1   
    11     4    20 1   
    12     4    21 1   
    13     5    12 1   
    14     5    22 1   
    15     5    23 1   
    16     6     7 1   
    17     6    12 1   
    18     6    24 1   
    19     6    25 1   
    20     7    17 1   
    21     7    26 1   
    22     7    27 1   
    23     8    13 ar  
    24     8    14 ar  
    25     8    28 1   
    26     9    11 ar  
    27     9    14 ar  
    28     9    15 1   
    29    10    15 1   
    30    10    16 2   
    31    10    29 1   
    32    11    16 1   
    33    15    30 1   
@<TRIPOS>SUBSTRUCTURE
     1 WXG         1 TEMP              0 ****  ****    0 ROOT
