@<TRIPOS>MOLECULE
WXH
   45    48     1     0     0
SMALL
No Charge or Current Charge


@<TRIPOS>ATOM
      1 C10        -13.5240   -14.6150    22.5230 cc         1 WXH      -0.084000
      2 C13        -15.4980   -15.6960    24.5920 ca         1 WXH      -0.019000
      3 C15        -17.0440   -15.1490    26.3800 ca         1 WXH       0.373500
      4 C17        -15.9230   -13.4290    25.3390 ca         1 WXH       0.371900
      5 C20        -18.5840   -18.2500    27.7120 ce         1 WXH      -0.087200
      6 C21        -17.9930   -19.2810    28.3590 c2         1 WXH      -0.168200
      7 C22        -18.7910   -20.3590    29.0840 c6         1 WXH      -0.044200
      8 C26        -16.9130   -17.3620    25.9670 cd         1 WXH      -0.222200
      9 C02        -11.8080   -14.3920    20.6430 c          1 WXH       0.650700
     10 C04        -10.9960   -16.5290    19.5580 c3         1 WXH       0.037000
     11 C05         -9.6080   -16.9210    20.1230 c3         1 WXH       0.275000
     12 C09        -12.7040   -13.8760    21.6990 cd         1 WXH      -0.316600
     13 C11        -14.2690   -13.8300    23.4480 cc         1 WXH      -0.049000
     14 C12        -15.2300   -14.3130    24.4600 ca         1 WXH      -0.102000
     15 C14        -16.4200   -16.0680    25.5740 ca         1 WXH      -0.134800
     16 C19        -17.8240   -17.2350    26.9980 cc         1 WXH       0.002900
     17 C23        -20.2680   -19.9460    29.2990 c6         1 WXH       0.158800
     18 C25        -20.1140   -18.0800    27.7040 c6         1 WXH       0.198000
     19 C27        -14.0090   -12.4840    23.3240 cd         1 WXH      -0.256000
     20 F06         -9.7360   -17.6570    21.2510 f          1 WXH      -0.113333
     21 F07         -8.9200   -17.6580    19.2220 f          1 WXH      -0.113333
     22 F08         -8.8670   -15.8290    20.4180 f          1 WXH      -0.113333
     23 N03        -11.8350   -15.7600    20.5010 ns         1 WXH      -0.498900
     24 N16        -16.8160   -13.8300    26.2850 nb         1 WXH      -0.681000
     25 N18        -17.8810   -15.8460    27.2280 na         1 WXH      -0.325400
     26 N24        -20.8200   -19.3340    28.0690 n7         1 WXH      -0.858400
     27 O01        -11.1060   -13.6740    19.9490 o          1 WXH      -0.588100
     28 S28        -12.8260   -12.1500    22.0470 ss         1 WXH       0.349000
     29 H1         -13.6100   -15.6950    22.4870 ha         1 WXH       0.129000
     30 H2         -15.0240   -16.4500    23.9730 ha         1 WXH       0.120000
     31 H3         -15.7700   -12.3530    25.2980 h4         1 WXH       0.020100
     32 H4         -16.9080   -19.3890    28.3650 ha         1 WXH       0.178000
     33 H5         -18.7560   -21.2840    28.4930 hc         1 WXH       0.058700
     34 H6         -18.3250   -20.5900    30.0520 hc         1 WXH       0.058700
     35 H7         -16.6220   -18.3110    25.5220 ha         1 WXH       0.207000
     36 H8         -10.8530   -15.9430    18.6400 h1         1 WXH       0.092200
     37 H9         -11.5330   -17.4450    19.2780 h1         1 WXH       0.092200
     38 H10        -20.8610   -20.8280    29.5800 h1         1 WXH       0.034700
     39 H11        -20.3310   -19.2230    30.1260 h1         1 WXH       0.034700
     40 H12        -20.3850   -17.2910    28.4210 h1         1 WXH       0.036200
     41 H13        -20.4490   -17.7490    26.7090 h1         1 WXH       0.036200
     42 H14        -14.4130   -11.6460    23.8760 h4         1 WXH       0.155000
     43 H15        -12.4530   -16.2640    21.1240 hn         1 WXH       0.330500
     44 H16        -18.4520   -15.3970    27.9300 hn         1 WXH       0.360000
     45 H17        -21.8150   -19.1180    28.2160 hn         1 WXH       0.417000
@<TRIPOS>BOND
     1     1    12 2   
     2     1    13 1   
     3     1    29 1   
     4     2    14 ar  
     5     2    15 ar  
     6     2    30 1   
     7     3    15 ar  
     8     3    24 ar  
     9     3    25 1   
    10     4    14 ar  
    11     4    24 ar  
    12     4    31 1   
    13     5     6 2   
    14     5    16 1   
    15     5    18 1   
    16     6     7 1   
    17     6    32 1   
    18     7    17 1   
    19     7    33 1   
    20     7    34 1   
    21     8    15 1   
    22     8    16 2   
    23     8    35 1   
    24     9    12 1   
    25     9    23 1   
    26     9    27 2   
    27    10    11 1   
    28    10    23 1   
    29    10    36 1   
    30    10    37 1   
    31    11    20 1   
    32    11    21 1   
    33    11    22 1   
    34    12    28 1   
    35    13    14 1   
    36    13    19 2   
    37    16    25 1   
    38    17    26 1   
    39    17    38 1   
    40    17    39 1   
    41    18    26 1   
    42    18    40 1   
    43    18    41 1   
    44    19    28 1   
    45    19    42 1   
    46    23    43 1   
    47    25    44 1   
    48    26    45 1   
@<TRIPOS>SUBSTRUCTURE
     1 WXH         1 TEMP              0 ****  ****    0 ROOT
