@<TRIPOS>MOLECULE
WXH
   45    48     1     0     0
SMALL
abcg2


@<TRIPOS>ATOM
      1 C10        -13.5790   -14.7300    22.5360 cc         1 WXH      -0.084000
      2 C13        -15.3810   -15.8680    24.7030 ca         1 WXH      -0.019000
      3 C15        -17.3600   -15.3730    25.9470 ca         1 WXH       0.373500
      4 C17        -16.4080   -13.6950    24.8180 ca         1 WXH       0.371900
      5 C20        -18.6900   -18.2600    27.6800 ce         1 WXH      -0.087200
      6 C21        -18.2980   -19.5230    27.8830 c2         1 WXH      -0.168200
      7 C22        -19.0300   -20.4730    28.7730 c6         1 WXH      -0.044200
      8 C26        -16.7680   -17.5630    26.1200 cd         1 WXH      -0.222200
      9 C02        -11.6440   -14.3610    20.8500 c          1 WXH       0.650700
     10 C04        -10.7830   -16.1310    19.4030 c3         1 WXH       0.037000
     11 C05         -9.5920   -16.8320    20.0250 c3         1 WXH       0.275000
     12 C09        -12.6300   -13.9970    21.8840 cd         1 WXH      -0.316600
     13 C11        -14.3130   -13.9720    23.4910 cc         1 WXH      -0.049000
     14 C12        -15.3760   -14.5250    24.3410 ca         1 WXH      -0.102000
     15 C14        -16.4030   -16.3250    25.5280 ca         1 WXH      -0.134800
     16 C19        -17.9030   -17.3400    26.8650 cc         1 WXH       0.002900
     17 C23        -20.0320   -19.7340    29.6430 c6         1 WXH       0.158800
     18 C25        -19.9540   -17.7360    28.3130 c6         1 WXH       0.198000
     19 C27        -13.8790   -12.6710    23.5240 cd         1 WXH      -0.256000
     20 F06         -9.9700   -17.8570    20.8000 f          1 WXH      -0.113333
     21 F07         -8.7830   -17.3240    19.0780 f          1 WXH      -0.113333
     22 F08         -8.8590   -16.0210    20.7960 f          1 WXH      -0.113333
     23 N03        -11.6860   -15.6330    20.3990 ns         1 WXH      -0.498900
     24 N16        -17.3870   -14.0950    25.6130 nb         1 WXH      -0.681000
     25 N18        -18.2500   -16.0110    26.7500 na         1 WXH      -0.325400
     26 N24        -20.7800   -18.8180    28.8040 n7         1 WXH      -0.858400
     27 O01        -10.8500   -13.5290    20.4410 o          1 WXH      -0.588100
     28 S28        -12.6150   -12.3660    22.4250 ss         1 WXH       0.349000
     29 H1         -13.7710   -15.7770    22.3430 ha         1 WXH       0.129000
     30 H2         -14.6000   -16.5410    24.3700 ha         1 WXH       0.120000
     31 H3         -16.4360   -12.6520    24.5210 h4         1 WXH       0.020100
     32 H4         -17.3960   -19.8900    27.4050 ha         1 WXH       0.178000
     33 H5         -19.5360   -21.2330    28.1670 hc         1 WXH       0.058700
     34 H6         -18.3140   -21.0140    29.3970 hc         1 WXH       0.058700
     35 H7         -16.2560   -18.5060    26.0090 ha         1 WXH       0.207000
     36 H8         -10.4280   -15.3180    18.7700 h1         1 WXH       0.092200
     37 H9         -11.3070   -16.8420    18.7640 h1         1 WXH       0.092200
     38 H10        -20.7250   -20.4380    30.1070 h1         1 WXH       0.034700
     39 H11        -19.4970   -19.2240    30.4590 h1         1 WXH       0.034700
     40 H12        -19.6780   -17.0120    29.1000 h1         1 WXH       0.036200
     41 H13        -20.5350   -17.1780    27.5720 h1         1 WXH       0.036200
     42 H14        -14.2320   -11.8780    24.1660 h4         1 WXH       0.155000
     43 H15        -12.3820   -16.2710    20.7500 hn         1 WXH       0.330500
     44 H16        -19.0310   -15.5600    27.2000 hn         1 WXH       0.360000
     45 H17        -21.5600   -18.4300    29.3170 hn         1 WXH       0.417000
@<TRIPOS>BOND
     1     1    12 2   
     2     1    13 1   
     3     1    29 1   
     4     2    14 ar  
     5     2    15 ar  
     6     2    30 1   
     7     3    15 ar  
     8     3    24 ar  
     9     3    25 1   
    10     4    14 ar  
    11     4    24 ar  
    12     4    31 1   
    13     5     6 2   
    14     5    16 1   
    15     5    18 1   
    16     6     7 1   
    17     6    32 1   
    18     7    17 1   
    19     7    33 1   
    20     7    34 1   
    21     8    15 1   
    22     8    16 2   
    23     8    35 1   
    24     9    12 1   
    25     9    23 1   
    26     9    27 2   
    27    10    11 1   
    28    10    23 1   
    29    10    36 1   
    30    10    37 1   
    31    11    20 1   
    32    11    21 1   
    33    11    22 1   
    34    12    28 1   
    35    13    14 1   
    36    13    19 2   
    37    16    25 1   
    38    17    26 1   
    39    17    38 1   
    40    17    39 1   
    41    18    26 1   
    42    18    40 1   
    43    18    41 1   
    44    19    28 1   
    45    19    42 1   
    46    23    43 1   
    47    25    44 1   
    48    26    45 1   
@<TRIPOS>SUBSTRUCTURE
     1 WXH         1 TEMP              0 ****  ****    0 ROOT
