@<TRIPOS>MOLECULE
WXJ
   33    35     1     0     0
SMALL
abcg2


@<TRIPOS>ATOM
      1 C15        -50.1400   -33.2490     3.5330 ca         1 WXJ      -0.174500
      2 C17        -49.6780   -35.5650     3.0580 ca         1 WXJ      -0.059000
      3 C20        -50.1270   -36.9110     2.9400 cg         1 WXJ       0.328000
      4 C02        -48.1090   -28.8570     7.4700 cc         1 WXJ       0.738900
      5 C03        -46.8000   -29.2720     7.1920 cd         1 WXJ      -0.109600
      6 C05        -44.7760   -29.8780     7.0910 cc         1 WXJ       0.533200
      7 C07        -46.4450   -29.5500     5.8620 cd         1 WXJ      -0.089000
      8 C09        -48.5990   -28.9990     5.2140 cd         1 WXJ       0.606400
      9 C11        -47.0370   -29.7430     3.4670 c3         1 WXJ       0.072600
     10 C12        -47.1070   -31.2350     3.2180 c3         1 WXJ       0.139600
     11 C14        -48.7990   -32.9340     3.2820 ca         1 WXJ       0.165100
     12 C16        -50.5780   -34.5510     3.4210 ca         1 WXJ      -0.031500
     13 C18        -48.3400   -35.2470     2.8110 ca         1 WXJ      -0.031500
     14 C19        -47.8970   -33.9390     2.9210 ca         1 WXJ      -0.174500
     15 N01        -48.5530   -28.5760     8.6980 nv         1 WXJ      -1.040900
     16 N04        -45.6950   -29.4910     7.9780 nd         1 WXJ      -0.594100
     17 N06        -45.1670   -29.9370     5.7830 nc         1 WXJ      -0.444300
     18 N08        -47.3640   -29.4040     4.8550 na         1 WXJ      -0.160500
     19 N10        -48.9860   -28.7300     6.4350 nc         1 WXJ      -0.809000
     20 N21        -50.4900   -38.0030     2.8420 n1         1 WXJ      -0.455000
     21 O13        -48.4680   -31.6300     3.4080 os         1 WXJ      -0.365100
     22 H151       -50.8210   -32.4560     3.8120 ha         1 WXJ       0.129000
     23 H051       -43.7670   -30.1350     7.3820 h5         1 WXJ       0.053800
     24 H091       -49.3080   -28.8920     4.4040 h5         1 WXJ       0.053100
     25 H111       -46.0290   -29.3910     3.2590 h1         1 WXJ       0.084700
     26 H112       -47.7360   -29.2160     2.8210 h1         1 WXJ       0.084700
     27 H121       -46.7900   -31.4420     2.1930 h1         1 WXJ       0.066700
     28 H122       -46.4600   -31.7760     3.9120 h1         1 WXJ       0.066700
     29 H161       -51.6150   -34.7940     3.6140 ha         1 WXJ       0.128000
     30 H181       -47.6450   -36.0260     2.5300 ha         1 WXJ       0.128000
     31 H191       -46.8600   -33.7140     2.7240 ha         1 WXJ       0.129000
     32 H012       -49.5070   -28.2830     8.8340 hn         1 WXJ       0.515500
     33 H011       -47.9440   -28.6530     9.4940 hn         1 WXJ       0.515500
@<TRIPOS>BOND
     1     1    11 ar  
     2     1    12 ar  
     3     1    22 1   
     4     2     3 1   
     5     2    12 ar  
     6     2    13 ar  
     7     3    20 3   
     8     4     5 2   
     9     4    15 1   
    10     4    19 1   
    11     5     7 1   
    12     5    16 1   
    13     6    16 2   
    14     6    17 1   
    15     6    23 1   
    16     7    17 2   
    17     7    18 1   
    18     8    18 1   
    19     8    19 2   
    20     8    24 1   
    21     9    10 1   
    22     9    18 1   
    23     9    25 1   
    24     9    26 1   
    25    10    21 1   
    26    10    27 1   
    27    10    28 1   
    28    11    14 ar  
    29    11    21 1   
    30    12    29 1   
    31    13    14 ar  
    32    13    30 1   
    33    14    31 1   
    34    15    32 1   
    35    15    33 1   
@<TRIPOS>SUBSTRUCTURE
     1 WXJ         1 TEMP              0 ****  ****    0 ROOT
