@<TRIPOS>MOLECULE
WXJ
   33    35     1     0     0
SMALL
No Charge or Current Charge


@<TRIPOS>ATOM
      1 C15        -50.2050   -33.2780     3.4550 ca         1 WXJ      -0.174500
      2 C17        -49.8300   -35.6310     2.9460 ca         1 WXJ      -0.059000
      3 C20        -50.3330   -36.9680     2.7910 cg         1 WXJ       0.328000
      4 C02        -48.0050   -28.7790     7.5310 cc         1 WXJ       0.738900
      5 C03        -46.6900   -29.0460     7.2220 cd         1 WXJ      -0.109600
      6 C05        -44.6640   -29.3810     7.1640 cc         1 WXJ       0.533200
      7 C07        -46.3520   -29.3700     5.9440 cd         1 WXJ      -0.089000
      8 C09        -48.6180   -29.1850     5.3260 cd         1 WXJ       0.606400
      9 C11        -46.9310   -29.8050     3.5240 c3         1 WXJ       0.072600
     10 C12        -47.0410   -31.3160     3.2400 c3         1 WXJ       0.139600
     11 C14        -48.8440   -33.0050     3.2520 ca         1 WXJ       0.165100
     12 C16        -50.7020   -34.5850     3.3040 ca         1 WXJ      -0.031500
     13 C18        -48.4630   -35.3620     2.7410 ca         1 WXJ      -0.031500
     14 C19        -47.9690   -34.0530     2.8930 ca         1 WXJ      -0.174500
     15 N01        -48.5220   -28.4610     8.7110 nv         1 WXJ      -1.040900
     16 N04        -45.6050   -29.0410     8.0680 nd         1 WXJ      -0.594100
     17 N06        -45.0690   -29.5960     5.8460 nc         1 WXJ      -0.444300
     18 N08        -47.2770   -29.4480     4.9160 na         1 WXJ      -0.160500
     19 N10        -48.9820   -28.8550     6.5940 nc         1 WXJ      -0.809000
     20 N21        -50.7410   -38.0540     2.6550 n1         1 WXJ      -0.455000
     21 O13        -48.4190   -31.7040     3.4160 os         1 WXJ      -0.365100
     22 H151       -50.8800   -32.4710     3.7310 ha         1 WXJ       0.129000
     23 H051       -43.6140   -29.4970     7.4070 h5         1 WXJ       0.053800
     24 H091       -49.3680   -29.2580     4.5470 h5         1 WXJ       0.053100
     25 H111       -45.9060   -29.4770     3.3130 h1         1 WXJ       0.084700
     26 H112       -47.5920   -29.2610     2.8370 h1         1 WXJ       0.084700
     27 H121       -46.7090   -31.5150     2.2130 h1         1 WXJ       0.066700
     28 H122       -46.3870   -31.8620     3.9320 h1         1 WXJ       0.066700
     29 H161       -51.7600   -34.7810     3.4640 ha         1 WXJ       0.128000
     30 H181       -47.7820   -36.1650     2.4650 ha         1 WXJ       0.128000
     31 H191       -46.9110   -33.8750     2.7290 ha         1 WXJ       0.129000
     32 H012       -49.5090   -28.6620     8.7770 hn         1 WXJ       0.515500
     33 H011       -47.9550   -28.7320     9.5050 hn         1 WXJ       0.515500
@<TRIPOS>BOND
     1     1    11 ar  
     2     1    12 ar  
     3     1    22 1   
     4     2     3 1   
     5     2    12 ar  
     6     2    13 ar  
     7     3    20 3   
     8     4     5 2   
     9     4    15 1   
    10     4    19 1   
    11     5     7 1   
    12     5    16 1   
    13     6    16 2   
    14     6    17 1   
    15     6    23 1   
    16     7    17 2   
    17     7    18 1   
    18     8    18 1   
    19     8    19 2   
    20     8    24 1   
    21     9    10 1   
    22     9    18 1   
    23     9    25 1   
    24     9    26 1   
    25    10    21 1   
    26    10    27 1   
    27    10    28 1   
    28    11    14 ar  
    29    11    21 1   
    30    12    29 1   
    31    13    14 ar  
    32    13    30 1   
    33    14    31 1   
    34    15    32 1   
    35    15    33 1   
@<TRIPOS>SUBSTRUCTURE
     1 WXJ         1 TEMP              0 ****  ****    0 ROOT
