@<TRIPOS>MOLECULE
WXK
   32    34     1     0     0
SMALL
No Charge or Current Charge


@<TRIPOS>ATOM
      1 C17        -46.1950   -28.8870     6.3110 c          1 WXK       0.603600
      2 C14        -48.5090   -29.4790     6.8590 c          1 WXK       0.629000
      3 C12        -47.7590   -29.5880     4.5630 ca         1 WXK       0.561900
      4 C10        -47.3040   -29.7570     2.3350 ca         1 WXK       0.491900
      5 C20        -45.5440   -29.0450     3.8520 ca         1 WXK       0.126000
      6 C19        -46.4820   -29.1730     4.8830 ca         1 WXK      -0.284600
      7 C01        -43.1690   -31.5450     2.9340 c3         1 WXK      -0.066100
      8 C02        -44.2880   -31.7850     1.9250 cx         1 WXK       0.181200
      9 C03        -44.4790   -33.2070     1.4530 cx         1 WXK      -0.139900
     10 C04        -45.5290   -32.5550     2.3140 cx         1 WXK      -0.139900
     11 C09        -45.9790   -29.3730     2.5560 ca         1 WXK      -0.419500
     12 N05        -44.3980   -30.7980     0.8750 n7         1 WXK      -0.883300
     13 N11        -48.2010   -29.8740     3.3400 nb         1 WXK      -0.735000
     14 N13        -48.6990   -29.7200     5.5430 ns         1 WXK      -0.586900
     15 N16        -47.2470   -29.0710     7.1630 ns         1 WXK      -0.472500
     16 O07        -45.7190   -28.9130    -0.0130 o          1 WXK      -0.537500
     17 O08        -43.7050   -28.4640     1.5020 o          1 WXK      -0.537500
     18 O15        -49.3850   -29.6150     7.6880 o          1 WXK      -0.529000
     19 O18        -45.1040   -28.5150     6.7080 o          1 WXK      -0.506000
     20 S06        -44.9060   -29.2290     1.1600 sy         1 WXK       1.215600
     21 H101       -47.6720   -29.9950     1.3370 h4         1 WXK       0.039100
     22 H201       -44.5290   -28.7020     4.0540 ha         1 WXK       0.171000
     23 H011       -43.1040   -32.3620     3.6620 hc         1 WXK       0.056367
     24 H012       -42.2010   -31.4770     2.4250 hc         1 WXK       0.056367
     25 H013       -43.3140   -30.6190     3.4960 hc         1 WXK       0.056367
     26 H031       -44.7150   -33.3780     0.4060 hc         1 WXK       0.080700
     27 H032       -43.8670   -33.9840     1.9070 hc         1 WXK       0.080700
     28 H042       -45.6170   -32.8830     3.3470 hc         1 WXK       0.080700
     29 H041       -46.4750   -32.3190     1.8350 hc         1 WXK       0.080700
     30 H051       -45.0750   -31.0840     0.1720 hn         1 WXK       0.494000
     31 H131       -49.6130   -30.0240     5.2450 hn         1 WXK       0.480000
     32 H161       -47.0670   -28.8810     8.1360 hn         1 WXK       0.352500
@<TRIPOS>BOND
     1     1     6 1   
     2     1    15 1   
     3     1    19 2   
     4     2    14 1   
     5     2    15 1   
     6     2    18 2   
     7     3     6 ar  
     8     3    13 ar  
     9     3    14 1   
    10     4    11 ar  
    11     4    13 ar  
    12     4    21 1   
    13     5     6 ar  
    14     5    11 ar  
    15     5    22 1   
    16     7     8 1   
    17     7    23 1   
    18     7    24 1   
    19     7    25 1   
    20     8     9 1   
    21     8    10 1   
    22     8    12 1   
    23     9    10 1   
    24     9    26 1   
    25     9    27 1   
    26    10    28 1   
    27    10    29 1   
    28    11    20 1   
    29    12    20 1   
    30    12    30 1   
    31    14    31 1   
    32    15    32 1   
    33    16    20 2   
    34    17    20 2   
@<TRIPOS>SUBSTRUCTURE
     1 WXK         1 TEMP              0 ****  ****    0 ROOT
