@<TRIPOS>MOLECULE
WXK
   32    34     1     0     0
SMALL
abcg2


@<TRIPOS>ATOM
      1 C17        -46.6960   -29.0150     6.3840 c          1 WXK       0.603600
      2 C14        -49.1340   -29.3940     6.6620 c          1 WXK       0.629000
      3 C12        -48.1690   -29.4650     4.4370 ca         1 WXK       0.561900
      4 C10        -47.4110   -29.5740     2.2920 ca         1 WXK       0.491900
      5 C20        -45.8300   -29.1400     4.0430 ca         1 WXK       0.126000
      6 C19        -46.8860   -29.2040     4.9400 ca         1 WXK      -0.284600
      7 C01        -42.3970   -31.7740     1.9000 c3         1 WXK      -0.066100
      8 C02        -43.9050   -31.8500     1.8520 cx         1 WXK       0.181200
      9 C03        -44.5530   -33.2020     1.8080 cx         1 WXK      -0.139900
     10 C04        -44.6550   -32.3660     3.0580 cx         1 WXK      -0.139900
     11 C09        -46.0950   -29.3320     2.7000 ca         1 WXK      -0.419500
     12 N05        -44.5230   -30.8380     1.0080 n7         1 WXK      -0.883300
     13 N11        -48.4300   -29.6420     3.1380 nb         1 WXK      -0.735000
     14 N13        -49.2290   -29.5470     5.3010 ns         1 WXK      -0.586900
     15 N16        -47.8570   -29.1310     7.1270 ns         1 WXK      -0.472500
     16 O07        -45.2840   -28.6020     0.3420 o          1 WXK      -0.537500
     17 O08        -43.6100   -28.8470     2.1840 o          1 WXK      -0.537500
     18 O15        -50.0930   -29.4800     7.4060 o          1 WXK      -0.529000
     19 O18        -45.6260   -28.7770     6.9160 o          1 WXK      -0.506000
     20 S06        -44.7900   -29.3090     1.4990 sy         1 WXK       1.215600
     21 H101       -47.6420   -29.7210     1.2440 h4         1 WXK       0.039100
     22 H201       -44.8270   -28.9470     4.3970 ha         1 WXK       0.171000
     23 H011       -42.0020   -32.5950     2.4980 hc         1 WXK       0.056367
     24 H012       -41.9840   -31.8480     0.8920 hc         1 WXK       0.056367
     25 H013       -42.0670   -30.8340     2.3410 hc         1 WXK       0.056367
     26 H031       -45.4490   -33.3120     1.2110 hc         1 WXK       0.080700
     27 H032       -43.8930   -34.0590     1.8040 hc         1 WXK       0.080700
     28 H042       -44.0660   -32.6450     3.9210 hc         1 WXK       0.080700
     29 H041       -45.6210   -31.9410     3.2850 hc         1 WXK       0.080700
     30 H051       -45.2080   -31.1560     0.3320 hn         1 WXK       0.494000
     31 H131       -50.1470   -29.7390     4.9210 hn         1 WXK       0.480000
     32 H161       -47.7730   -29.0120     8.1300 hn         1 WXK       0.352500
@<TRIPOS>BOND
     1     1     6 1   
     2     1    15 1   
     3     1    19 2   
     4     2    14 1   
     5     2    15 1   
     6     2    18 2   
     7     3     6 ar  
     8     3    13 ar  
     9     3    14 1   
    10     4    11 ar  
    11     4    13 ar  
    12     4    21 1   
    13     5     6 ar  
    14     5    11 ar  
    15     5    22 1   
    16     7     8 1   
    17     7    23 1   
    18     7    24 1   
    19     7    25 1   
    20     8     9 1   
    21     8    10 1   
    22     8    12 1   
    23     9    10 1   
    24     9    26 1   
    25     9    27 1   
    26    10    28 1   
    27    10    29 1   
    28    11    20 1   
    29    12    20 1   
    30    12    30 1   
    31    14    31 1   
    32    15    32 1   
    33    16    20 2   
    34    17    20 2   
@<TRIPOS>SUBSTRUCTURE
     1 WXK         1 TEMP              0 ****  ****    0 ROOT
