@<TRIPOS>MOLECULE
WXO
   38    40     1     0     0
SMALL
abcg2


@<TRIPOS>ATOM
      1 C18        -45.5820   -33.3000    -0.2240 c3         1 WXO      -0.076900
      2 C17        -46.1890   -32.3440     0.7980 c3         1 WXO       0.224800
      3 C11        -48.3700   -29.3190     4.8390 ca         1 WXO       0.562900
      4 C20        -43.0810   -33.1000     0.3260 c3         1 WXO      -0.065900
      5 C19        -44.3020   -34.0240     0.2070 c3         1 WXO      -0.065900
      6 C02        -48.8930   -28.8530     7.1640 c          1 WXO       0.629000
      7 C04        -46.5370   -28.7030     6.3980 c          1 WXO       0.603600
      8 C06        -47.0060   -29.0780     5.0580 ca         1 WXO      -0.283600
      9 C07        -46.1370   -29.2020     3.9840 ca         1 WXO       0.118000
     10 C08        -46.6590   -29.5560     2.7500 ca         1 WXO      -0.417500
     11 C09        -48.0350   -29.7730     2.6330 ca         1 WXO       0.497900
     12 C21        -42.9340   -32.3530     1.6600 c3         1 WXO      -0.076900
     13 C22        -44.2460   -31.8870     2.2880 c3         1 WXO       0.224800
     14 N03        -47.5400   -28.6240     7.3460 ns         1 WXO      -0.471500
     15 N10        -48.8770   -29.6580     3.6520 nb         1 WXO      -0.736000
     16 N12        -49.2500   -29.2000     5.8840 ns         1 WXO      -0.587900
     17 N16        -45.2060   -31.3630     1.2980 n3         1 WXO      -0.774500
     18 O05        -45.3740   -28.4750     6.6860 o          1 WXO      -0.509000
     19 S13        -45.5950   -29.7880     1.3510 sy         1 WXO       1.219600
     20 H182       -45.3760   -32.7430    -1.1430 hc         1 WXO       0.050700
     21 H181       -46.3550   -34.0350    -0.4650 hc         1 WXO       0.050700
     22 H172       -47.0170   -31.8080     0.3410 h1         1 WXO       0.046450
     23 H171       -46.5780   -32.9000     1.6570 h1         1 WXO       0.046450
     24 H202       -43.1260   -32.3720    -0.4890 hc         1 WXO       0.041700
     25 H201       -42.1690   -33.6790     0.1650 hc         1 WXO       0.041700
     26 H192       -44.0870   -34.7850    -0.5470 hc         1 WXO       0.041700
     27 H191       -44.4680   -34.5640     1.1450 hc         1 WXO       0.041700
     28 H071       -45.0820   -29.0110     4.1190 ha         1 WXO       0.165000
     29 H091       -48.4660   -30.0400     1.6760 h4         1 WXO       0.046100
     30 H212       -42.4460   -32.9990     2.3960 hc         1 WXO       0.050700
     31 H211       -42.2790   -31.4920     1.5140 hc         1 WXO       0.050700
     32 H222       -44.7430   -32.7150     2.7960 h1         1 WXO       0.046450
     33 H221       -44.0430   -31.1290     3.0410 h1         1 WXO       0.046450
     34 H031       -47.2640   -28.3690     8.2870 hn         1 WXO       0.351500
     35 H121       -50.2320   -29.3730     5.7110 hn         1 WXO       0.479000
     36 O01        -49.6980   -28.7520     8.0710 o          1 WXO      -0.530000
     37 O14        -44.3850   -29.0500     1.6240 o          1 WXO      -0.540000
     38 O15        -46.3710   -29.4820     0.1730 o          1 WXO      -0.540000
@<TRIPOS>BOND
     1     1     2 1   
     2     1     5 1   
     3     1    20 1   
     4     1    21 1   
     5     2    17 1   
     6     2    22 1   
     7     2    23 1   
     8     3     8 ar  
     9     3    15 ar  
    10     3    16 1   
    11     4     5 1   
    12     4    12 1   
    13     4    24 1   
    14     4    25 1   
    15     5    26 1   
    16     5    27 1   
    17     6    14 1   
    18     6    16 1   
    19     6    36 2   
    20     7     8 1   
    21     7    14 1   
    22     7    18 2   
    23     8     9 ar  
    24     9    10 ar  
    25     9    28 1   
    26    10    11 ar  
    27    10    19 1   
    28    11    15 ar  
    29    11    29 1   
    30    12    13 1   
    31    12    30 1   
    32    12    31 1   
    33    13    17 1   
    34    13    32 1   
    35    13    33 1   
    36    14    34 1   
    37    16    35 1   
    38    17    19 1   
    39    19    37 2   
    40    19    38 2   
@<TRIPOS>SUBSTRUCTURE
     1 WXO         1 TEMP              0 ****  ****    0 ROOT
