@<TRIPOS>MOLECULE
WXO
   38    40     1     0     0
SMALL
No Charge or Current Charge


@<TRIPOS>ATOM
      1 C18        -45.6990   -33.2620     0.0220 c3         1 WXO      -0.076900
      2 C17        -46.1360   -31.9500     0.7090 c3         1 WXO       0.224800
      3 C11        -48.2310   -29.5610     4.7350 ca         1 WXO       0.562900
      4 C20        -43.2010   -33.3480     0.6230 c3         1 WXO      -0.065900
      5 C19        -44.5660   -34.0600     0.7050 c3         1 WXO      -0.065900
      6 C02        -48.7860   -29.4380     7.0850 c          1 WXO       0.629000
      7 C04        -46.4880   -28.9910     6.3590 c          1 WXO       0.603600
      8 C06        -46.9070   -29.2360     4.9560 ca         1 WXO      -0.283600
      9 C07        -46.0480   -29.1550     3.8540 ca         1 WXO       0.118000
     10 C08        -46.6090   -29.4250     2.5930 ca         1 WXO      -0.417500
     11 C09        -47.9670   -29.7340     2.4770 ca         1 WXO       0.497900
     12 C21        -42.9660   -32.2550     1.6880 c3         1 WXO      -0.076900
     13 C22        -44.1690   -31.3680     2.0820 c3         1 WXO       0.224800
     14 N03        -47.4790   -29.1180     7.2910 ns         1 WXO      -0.471500
     15 N10        -48.7850   -29.8080     3.5500 nb         1 WXO      -0.736000
     16 N12        -49.0960   -29.6470     5.7870 ns         1 WXO      -0.587900
     17 N16        -45.0620   -30.9540     0.9700 n3         1 WXO      -0.774500
     18 O05        -45.3470   -28.6980     6.6710 o          1 WXO      -0.509000
     19 S13        -45.6390   -29.3530     1.1190 sy         1 WXO       1.219600
     20 H182       -45.4030   -33.0330    -1.0090 hc         1 WXO       0.050700
     21 H181       -46.5800   -33.9100    -0.0540 hc         1 WXO       0.050700
     22 H172       -46.9060   -31.5240     0.0530 h1         1 WXO       0.046450
     23 H171       -46.6450   -32.2050     1.6490 h1         1 WXO       0.046450
     24 H202       -43.0830   -32.9090    -0.3750 hc         1 WXO       0.041700
     25 H201       -42.4050   -34.0960     0.7190 hc         1 WXO       0.041700
     26 H192       -44.4800   -35.0270     0.1960 hc         1 WXO       0.041700
     27 H191       -44.8240   -34.2780     1.7490 hc         1 WXO       0.041700
     28 H071       -44.9960   -28.8940     3.9760 ha         1 WXO       0.165000
     29 H091       -48.4270   -29.9400     1.5100 h4         1 WXO       0.046100
     30 H212       -42.5880   -32.7290     2.6030 hc         1 WXO       0.050700
     31 H211       -42.1590   -31.6040     1.3310 hc         1 WXO       0.050700
     32 H222       -44.7540   -31.8950     2.8480 h1         1 WXO       0.046450
     33 H221       -43.7350   -30.5000     2.5950 h1         1 WXO       0.046450
     34 H031       -47.2100   -28.9550     8.2480 hn         1 WXO       0.351500
     35 H121       -50.0490   -29.8870     5.5610 hn         1 WXO       0.479000
     36 O01        -49.6010   -29.5290     7.9810 o          1 WXO      -0.530000
     37 O14        -44.4620   -28.5100     1.3480 o          1 WXO      -0.540000
     38 O15        -46.5120   -29.1140    -0.0340 o          1 WXO      -0.540000
@<TRIPOS>BOND
     1     1     2 1   
     2     1     5 1   
     3     1    20 1   
     4     1    21 1   
     5     2    17 1   
     6     2    22 1   
     7     2    23 1   
     8     3     8 ar  
     9     3    15 ar  
    10     3    16 1   
    11     4     5 1   
    12     4    12 1   
    13     4    24 1   
    14     4    25 1   
    15     5    26 1   
    16     5    27 1   
    17     6    14 1   
    18     6    16 1   
    19     6    36 2   
    20     7     8 1   
    21     7    14 1   
    22     7    18 2   
    23     8     9 ar  
    24     9    10 ar  
    25     9    28 1   
    26    10    11 ar  
    27    10    19 1   
    28    11    15 ar  
    29    11    29 1   
    30    12    13 1   
    31    12    30 1   
    32    12    31 1   
    33    13    17 1   
    34    13    32 1   
    35    13    33 1   
    36    14    34 1   
    37    16    35 1   
    38    17    19 1   
    39    19    37 2   
    40    19    38 2   
@<TRIPOS>SUBSTRUCTURE
     1 WXO         1 TEMP              0 ****  ****    0 ROOT
