@<TRIPOS>MOLECULE
WXQ
   51    54     1     0     0
SMALL
abcg2


@<TRIPOS>ATOM
      1 C10        -48.6510    23.7270    -6.1740 cc         1 WXQ      -0.006300
      2 C13        -44.9380    23.2080    -6.2080 ca         1 WXQ      -0.154000
      3 C20        -45.4570    24.9260    -7.8050 ca         1 WXQ      -0.154000
      4 C21        -46.8000    24.7870    -7.4880 ca         1 WXQ      -0.062500
      5 C24        -50.8240    23.3400    -6.4490 ca         1 WXQ       0.153500
      6 C26        -52.9880    23.0220    -6.1490 ca         1 WXQ       0.181900
      7 C28        -51.7510    23.4720    -4.2690 ca         1 WXQ       0.440900
      8 C01        -46.2610    23.8850     0.8630 c3         1 WXQ       0.148900
      9 C03        -47.0260    24.5020    -1.2950 ca         1 WXQ       0.138100
     10 C04        -46.9990    25.4290    -2.3410 ca         1 WXQ      -0.174500
     11 C05        -47.7090    25.1930    -3.5010 ca         1 WXQ      -0.070000
     12 C06        -48.4640    24.0280    -3.6680 ca         1 WXQ      -0.058800
     13 C07        -48.4780    23.1130    -2.6200 ca         1 WXQ      -0.070000
     14 C08        -47.7740    23.3380    -1.4420 ca         1 WXQ      -0.174500
     15 C09        -49.1990    23.7700    -4.9130 cd         1 WXQ      -0.037400
     16 C11        -47.2390    23.8640    -6.5420 ca         1 WXQ      -0.070800
     17 C12        -46.2790    23.0740    -5.9100 ca         1 WXQ      -0.062500
     18 C14        -44.5050    24.1360    -7.1600 ca         1 WXQ      -0.009000
     19 C16        -42.4220    25.1360    -8.0820 c          1 WXQ       0.609300
     20 C18        -40.9580    24.8790    -8.0760 ce         1 WXQ      -0.308200
     21 C19        -40.1060    25.7110    -8.6640 c2         1 WXQ      -0.222000
     22 C30        -50.5970    23.5250    -5.0810 ca         1 WXQ      -0.250800
     23 N15        -43.1330    24.1900    -7.4100 ns         1 WXQ      -0.144000
     24 N22        -49.6430    23.4700    -7.1020 na         1 WXQ      -0.170400
     25 N25        -52.0030    23.0820    -7.0200 nb         1 WXQ      -0.239000
     26 N27        -52.9340    23.2030    -4.8320 nb         1 WXQ      -0.310000
     27 N29        -51.7280    23.6860    -2.9480 nv         1 WXQ      -1.079900
     28 O02        -46.3090    24.8160    -0.2000 os         1 WXQ      -0.340100
     29 O17        -42.9220    26.1000    -8.6340 o          1 WXQ      -0.579100
     30 H131       -44.2170    22.5800    -5.6980 ha         1 WXQ       0.130000
     31 H201       -45.1670    25.6540    -8.5450 ha         1 WXQ       0.130000
     32 H211       -47.5110    25.4360    -7.9840 ha         1 WXQ       0.121000
     33 H261       -53.9730    22.8030    -6.5500 h5         1 WXQ       0.042100
     34 H011       -45.6230    24.3220     1.6270 h1         1 WXQ       0.040367
     35 H012       -47.2490    23.7020     1.2930 h1         1 WXQ       0.040367
     36 H013       -45.8310    22.9300     0.5500 h1         1 WXQ       0.040367
     37 H041       -46.4220    26.3390    -2.2320 ha         1 WXQ       0.122500
     38 H051       -47.6800    25.9290    -4.2950 ha         1 WXQ       0.121000
     39 H071       -49.0330    22.1880    -2.7220 ha         1 WXQ       0.121000
     40 H081       -47.8200    22.5910    -0.6610 ha         1 WXQ       0.122500
     41 H121       -46.5850    22.3390    -5.1760 ha         1 WXQ       0.121000
     42 H1         -40.5920    23.9920    -7.5720 ha         1 WXQ       0.177000
     43 H191       -39.0420    25.5190    -8.6520 ha         1 WXQ       0.178500
     44 H192       -40.4380    26.6070    -9.1730 ha         1 WXQ       0.178500
     45 H232       -49.1460    24.1790    -9.0210 h1         1 WXQ       0.057700
     46 H231       -48.7240    22.4880    -8.7060 h1         1 WXQ       0.057700
     47 H233       -50.4130    22.9550    -8.9450 h1         1 WXQ       0.057700
     48 H151       -42.5950    23.4580    -6.9700 hn         1 WXQ       0.151000
     49 H291       -52.5830    23.6400    -2.4220 hn         1 WXQ       0.502500
     50 H292       -50.8820    23.9210    -2.4600 hn         1 WXQ       0.502500
     51 C23        -49.4630    23.2660    -8.5210 c3         1 WXQ       0.060900
@<TRIPOS>BOND
     1     1    15 2   
     2     1    16 1   
     3     1    24 1   
     4     2    17 ar  
     5     2    18 ar  
     6     2    30 1   
     7     3     4 ar  
     8     3    18 ar  
     9     3    31 1   
    10     4    16 ar  
    11     4    32 1   
    12     5    22 ar  
    13     5    24 1   
    14     5    25 ar  
    15     6    25 ar  
    16     6    26 ar  
    17     6    33 1   
    18     7    22 ar  
    19     7    26 ar  
    20     7    27 1   
    21     8    28 1   
    22     8    34 1   
    23     8    35 1   
    24     8    36 1   
    25     9    10 ar  
    26     9    14 ar  
    27     9    28 1   
    28    10    11 ar  
    29    10    37 1   
    30    11    12 ar  
    31    11    38 1   
    32    12    13 ar  
    33    12    15 1   
    34    13    14 ar  
    35    13    39 1   
    36    14    40 1   
    37    15    22 1   
    38    16    17 ar  
    39    17    41 1   
    40    18    23 1   
    41    19    20 1   
    42    19    23 1   
    43    19    29 2   
    44    20    21 2   
    45    20    42 1   
    46    21    43 1   
    47    21    44 1   
    48    23    48 1   
    49    24    51 1   
    50    27    49 1   
    51    27    50 1   
    52    45    51 1   
    53    46    51 1   
    54    47    51 1   
@<TRIPOS>SUBSTRUCTURE
     1 WXQ         1 TEMP              0 ****  ****    0 ROOT
