@<TRIPOS>MOLECULE
WXQ
   51    54     1     0     0
SMALL
No Charge or Current Charge


@<TRIPOS>ATOM
      1 C10        -48.6000    23.6590    -6.2400 cc         1 WXQ      -0.006300
      2 C13        -44.8300    23.3310    -6.1700 ca         1 WXQ      -0.154000
      3 C20        -45.4350    24.9930    -7.8290 ca         1 WXQ      -0.154000
      4 C21        -46.7940    24.7920    -7.5290 ca         1 WXQ      -0.062500
      5 C24        -50.8560    23.2920    -6.4590 ca         1 WXQ       0.153500
      6 C26        -53.0880    23.0840    -5.9900 ca         1 WXQ       0.181900
      7 C28        -51.6790    23.3710    -4.2110 ca         1 WXQ       0.440900
      8 C01        -46.5410    23.9000     1.1010 c3         1 WXQ       0.148900
      9 C03        -47.0650    24.3600    -1.2660 ca         1 WXQ       0.138100
     10 C04        -46.8250    25.1510    -2.3980 ca         1 WXQ      -0.174500
     11 C05        -47.5040    24.8990    -3.6020 ca         1 WXQ      -0.070000
     12 C06        -48.4490    23.8550    -3.6890 ca         1 WXQ      -0.058800
     13 C07        -48.6720    23.0500    -2.5530 ca         1 WXQ      -0.070000
     14 C08        -47.9930    23.3000    -1.3470 ca         1 WXQ      -0.174500
     15 C09        -49.1470    23.5690    -4.9630 cd         1 WXQ      -0.037400
     16 C11        -47.1820    23.8650    -6.5440 ca         1 WXQ      -0.070800
     17 C12        -46.1880    23.1310    -5.8700 ca         1 WXQ      -0.062500
     18 C14        -44.4370    24.2620    -7.1490 ca         1 WXQ      -0.009000
     19 C16        -42.3260    25.2110    -8.2720 c          1 WXQ       0.609300
     20 C18        -40.8440    25.0240    -8.1770 ce         1 WXQ      -0.308200
     21 C19        -39.9360    25.6920    -8.9330 c2         1 WXQ      -0.222000
     22 C30        -50.5940    23.3860    -5.1050 ca         1 WXQ      -0.250800
     23 N15        -43.0440    24.4090    -7.3950 ns         1 WXQ      -0.144000
     24 N22        -49.6550    23.4440    -7.1380 na         1 WXQ      -0.170400
     25 N25        -52.1120    23.1310    -6.9240 nb         1 WXQ      -0.239000
     26 N27        -52.9340    23.2130    -4.6530 nb         1 WXQ      -0.310000
     27 N29        -51.5800    23.5960    -2.8810 nv         1 WXQ      -1.079900
     28 O02        -46.3680    24.6530    -0.1120 os         1 WXQ      -0.340100
     29 O17        -42.8260    26.0040    -9.0600 o          1 WXQ      -0.579100
     30 H131       -44.0780    22.7540    -5.6340 ha         1 WXQ       0.130000
     31 H201       -45.1830    25.7220    -8.5910 ha         1 WXQ       0.130000
     32 H211       -47.5490    25.3710    -8.0560 ha         1 WXQ       0.121000
     33 H261       -54.1060    22.9520    -6.3550 h5         1 WXQ       0.042100
     34 H011       -45.8950    24.3010     1.8930 h1         1 WXQ       0.040367
     35 H012       -47.5800    23.9540     1.4500 h1         1 WXQ       0.040367
     36 H013       -46.2750    22.8460     0.9470 h1         1 WXQ       0.040367
     37 H041       -46.1080    25.9660    -2.3430 ha         1 WXQ       0.122500
     38 H051       -47.3100    25.5350    -4.4620 ha         1 WXQ       0.121000
     39 H071       -49.3480    22.2010    -2.6150 ha         1 WXQ       0.121000
     40 H081       -48.1900    22.6550    -0.4960 ha         1 WXQ       0.122500
     41 H121       -46.4690    22.4000    -5.1150 ha         1 WXQ       0.121000
     42 H1         -40.5060    24.2940    -7.4420 ha         1 WXQ       0.177000
     43 H191       -38.8640    25.5200    -8.8280 ha         1 WXQ       0.178500
     44 H192       -40.2350    26.4300    -9.6810 ha         1 WXQ       0.178500
     45 H232       -49.8300    24.3060    -9.0560 h1         1 WXQ       0.057700
     46 H231       -48.5710    23.0430    -8.9090 h1         1 WXQ       0.057700
     47 H233       -50.2920    22.5800    -8.9630 h1         1 WXQ       0.057700
     48 H151       -42.4650    23.8130    -6.8180 hn         1 WXQ       0.151000
     49 H291       -52.4290    23.8450    -2.3810 hn         1 WXQ       0.502500
     50 H292       -50.7140    24.0000    -2.5370 hn         1 WXQ       0.502500
     51 C23        -49.5830    23.3370    -8.6060 c3         1 WXQ       0.060900
@<TRIPOS>BOND
     1     1    15 2   
     2     1    16 1   
     3     1    24 1   
     4     2    17 ar  
     5     2    18 ar  
     6     2    30 1   
     7     3     4 ar  
     8     3    18 ar  
     9     3    31 1   
    10     4    16 ar  
    11     4    32 1   
    12     5    22 ar  
    13     5    24 1   
    14     5    25 ar  
    15     6    25 ar  
    16     6    26 ar  
    17     6    33 1   
    18     7    22 ar  
    19     7    26 ar  
    20     7    27 1   
    21     8    28 1   
    22     8    34 1   
    23     8    35 1   
    24     8    36 1   
    25     9    10 ar  
    26     9    14 ar  
    27     9    28 1   
    28    10    11 ar  
    29    10    37 1   
    30    11    12 ar  
    31    11    38 1   
    32    12    13 ar  
    33    12    15 1   
    34    13    14 ar  
    35    13    39 1   
    36    14    40 1   
    37    15    22 1   
    38    16    17 ar  
    39    17    41 1   
    40    18    23 1   
    41    19    20 1   
    42    19    23 1   
    43    19    29 2   
    44    20    21 2   
    45    20    42 1   
    46    21    43 1   
    47    21    44 1   
    48    23    48 1   
    49    24    51 1   
    50    27    49 1   
    51    27    50 1   
    52    45    51 1   
    53    46    51 1   
    54    47    51 1   
@<TRIPOS>SUBSTRUCTURE
     1 WXQ         1 TEMP              0 ****  ****    0 ROOT
