@<TRIPOS>MOLECULE
WXS
   26    28     1     0     0
SMALL
abcg2


@<TRIPOS>ATOM
      1 C10        -45.5010   -29.5100     3.5610 ca         1 WXS       0.274300
      2 C01        -47.3830   -31.3140     0.0320 c3         1 WXS      -0.023900
      3 C02        -46.3530   -32.0810     0.7550 cc         1 WXS       0.019900
      4 C04        -45.5660   -33.9430     1.6910 c          1 WXS       0.763200
      5 C07        -45.1520   -31.8020     1.2570 cd         1 WXS      -0.001100
      6 C08        -44.2920   -30.5960     1.3170 c3         1 WXS       0.120800
      7 C12        -45.4100   -30.9600     5.3500 ca         1 WXS       0.149900
      8 C14        -46.4660   -29.0410     5.6820 ca         1 WXS       0.105500
      9 C16        -47.3100   -27.0470     5.2960 cc         1 WXS       0.423700
     10 C18        -46.2180   -28.6200     4.3650 ca         1 WXS      -0.023600
     11 N11        -45.1050   -30.6740     4.0750 nb         1 WXS      -0.213000
     12 N13        -46.0820   -30.2010     6.2120 nb         1 WXS      -0.170000
     13 N15        -47.1660   -28.0150     6.2550 na         1 WXS      -0.419300
     14 N17        -46.7590   -27.3670     4.1490 nd         1 WXS      -0.541100
     15 O03        -46.6270   -33.4280     1.0290 os         1 WXS      -0.314200
     16 O06        -44.6440   -32.9700     1.8430 os         1 WXS      -0.298200
     17 S09        -45.1340   -29.0840     1.9000 ss         1 WXS      -0.295300
     18 H011       -47.6060   -31.7830    -0.9290 hc         1 WXS       0.067033
     19 H013       -48.3090   -31.2680     0.6120 hc         1 WXS       0.067033
     20 H012       -47.0320   -30.3000    -0.1450 hc         1 WXS       0.067033
     21 H081       -43.4390   -30.7960     1.9600 h1         1 WXS       0.102700
     22 H082       -43.9220   -30.3160     0.3300 h1         1 WXS       0.102700
     23 H121       -45.0650   -31.9210     5.7130 h5         1 WXS       0.061100
     24 H161       -47.8340   -26.1270     5.5030 h5         1 WXS       0.072800
     25 H151       -47.5100   -27.9750     7.2030 hn         1 WXS       0.375000
     26 O05        -45.4630   -35.0730     2.0760 o          1 WXS      -0.473000
@<TRIPOS>BOND
     1     1    10 ar  
     2     1    11 ar  
     3     1    17 1   
     4     2     3 1   
     5     2    18 1   
     6     2    19 1   
     7     2    20 1   
     8     3     5 2   
     9     3    15 1   
    10     4    15 1   
    11     4    16 1   
    12     4    26 2   
    13     5     6 1   
    14     5    16 1   
    15     6    17 1   
    16     6    21 1   
    17     6    22 1   
    18     7    11 ar  
    19     7    12 ar  
    20     7    23 1   
    21     8    10 ar  
    22     8    12 ar  
    23     8    13 1   
    24     9    13 1   
    25     9    14 2   
    26     9    24 1   
    27    10    14 1   
    28    13    25 1   
@<TRIPOS>SUBSTRUCTURE
     1 WXS         1 TEMP              0 ****  ****    0 ROOT
