@<TRIPOS>MOLECULE
WXS
   26    28     1     0     0
SMALL
No Charge or Current Charge


@<TRIPOS>ATOM
      1 C10        -45.0770   -29.5470     3.5740 ca         1 WXS       0.274300
      2 C01        -47.3850   -30.7090     0.5520 c3         1 WXS      -0.023900
      3 C02        -46.4680   -31.7890     1.0540 cc         1 WXS       0.019900
      4 C04        -45.9330   -33.8100     1.8200 c          1 WXS       0.763200
      5 C07        -45.1240   -31.8470     1.3270 cd         1 WXS      -0.001100
      6 C08        -44.0590   -30.7850     1.2080 c3         1 WXS       0.120800
      7 C12        -44.8200   -30.7720     5.5130 ca         1 WXS       0.149900
      8 C14        -46.5060   -29.2380     5.4720 ca         1 WXS       0.105500
      9 C16        -47.8490   -27.6350     4.6900 cc         1 WXS       0.423700
     10 C18        -46.1620   -28.8850     4.1900 ca         1 WXS      -0.023600
     11 N11        -44.3980   -30.5010     4.2540 nb         1 WXS      -0.213000
     12 N13        -45.8510   -30.1860     6.1660 nb         1 WXS      -0.170000
     13 N15        -47.5690   -28.4490     5.7840 na         1 WXS      -0.419300
     14 N17        -46.9940   -27.8820     3.6820 nd         1 WXS      -0.541100
     15 O03        -46.9410   -33.0150     1.3700 os         1 WXS      -0.314200
     16 O06        -44.7680   -33.0840     1.7980 os         1 WXS      -0.298200
     17 S09        -44.5670   -29.1460     1.9030 ss         1 WXS      -0.295300
     18 H011       -48.2940   -31.1370     0.1130 hc         1 WXS       0.067033
     19 H013       -47.6840   -30.0430     1.3690 hc         1 WXS       0.067033
     20 H012       -46.8920   -30.1040    -0.2170 hc         1 WXS       0.067033
     21 H081       -43.1550   -31.1230     1.7320 h1         1 WXS       0.102700
     22 H082       -43.7990   -30.6540     0.1500 h1         1 WXS       0.102700
     23 H121       -44.2730   -31.5420     6.0560 h5         1 WXS       0.061100
     24 H161       -48.6580   -26.9120     4.6900 h5         1 WXS       0.072800
     25 H151       -48.0750   -28.4460     6.6600 hn         1 WXS       0.375000
     26 O05        -46.0460   -34.9720     2.1830 o          1 WXS      -0.473000
@<TRIPOS>BOND
     1     1    10 ar  
     2     1    11 ar  
     3     1    17 1   
     4     2     3 1   
     5     2    18 1   
     6     2    19 1   
     7     2    20 1   
     8     3     5 2   
     9     3    15 1   
    10     4    15 1   
    11     4    16 1   
    12     4    26 2   
    13     5     6 1   
    14     5    16 1   
    15     6    17 1   
    16     6    21 1   
    17     6    22 1   
    18     7    11 ar  
    19     7    12 ar  
    20     7    23 1   
    21     8    10 ar  
    22     8    12 ar  
    23     8    13 1   
    24     9    13 1   
    25     9    14 2   
    26     9    24 1   
    27    10    14 1   
    28    13    25 1   
@<TRIPOS>SUBSTRUCTURE
     1 WXS         1 TEMP              0 ****  ****    0 ROOT
