@<TRIPOS>MOLECULE
WXT
   47    49     1     0     0
SMALL
abcg2


@<TRIPOS>ATOM
      1 C18        -54.9350   -28.8460     6.6830 cy         1 WXT      -0.070400
      2 C16        -52.7390   -29.1340     7.9980 c          1 WXT       0.603100
      3 C17        -54.2580   -29.0690     8.0760 cy         1 WXT      -0.163000
      4 C14        -50.6980   -30.4090     8.4970 c3         1 WXT       0.092000
      5 C12        -48.5380   -28.2280     4.5630 ca         1 WXT       0.182900
      6 C10        -46.4650   -28.7150     5.1610 ca         1 WXT       0.128500
      7 C20        -54.8080   -27.6680     8.4950 cy         1 WXT      -0.070400
      8 C19        -55.7760   -27.6980     7.2890 cy         1 WXT      -0.088400
      9 C02        -50.4320   -32.6100     7.1150 c3         1 WXT      -0.073700
     10 C03        -50.2270   -31.0840     7.1880 c3         1 WXT       0.213500
     11 C05        -48.2940   -29.8810     6.1660 ca         1 WXT       0.449900
     12 C06        -46.8990   -29.6830     6.0640 ca         1 WXT      -0.105600
     13 C08        -44.7710   -29.6820     6.1860 cc         1 WXT       0.398700
     14 C21        -54.9220   -30.2000     8.8540 c3         1 WXT      -0.083100
     15 N04        -48.8120   -30.7950     7.0010 nu         1 WXT      -0.918100
     16 N07        -45.8230   -30.2800     6.6960 nd         1 WXT      -0.558100
     17 N09        -45.0970   -28.7300     5.2570 na         1 WXT      -0.420300
     18 N11        -47.2480   -27.9530     4.3830 nb         1 WXT      -0.223000
     19 N13        -49.0920   -29.1250     5.3880 nb         1 WXT      -0.277000
     20 N15        -52.1300   -30.1930     8.5680 ns         1 WXT      -0.504900
     21 O22        -52.0980   -28.2490     7.4230 o          1 WXT      -0.597100
     22 H182       -54.2170   -28.4850     5.9490 hc         1 WXT       0.061450
     23 H181       -55.4680   -29.7070     6.2800 hc         1 WXT       0.061450
     24 H142       -50.3940   -31.0020     9.3600 h1         1 WXT       0.061700
     25 H141       -50.2080   -29.4390     8.5610 h1         1 WXT       0.061700
     26 H121       -49.2370   -27.6520     3.9650 h5         1 WXT       0.050100
     27 H202       -55.2450   -27.6170     9.4920 hc         1 WXT       0.061450
     28 H201       -54.0470   -26.8980     8.3910 hc         1 WXT       0.061450
     29 H192       -55.8520   -26.7850     6.7000 hc         1 WXT       0.050200
     30 H191       -56.7800   -28.0190     7.5660 hc         1 WXT       0.050200
     31 H012       -50.1370   -34.2130     5.6840 hc         1 WXT       0.036700
     32 H011       -50.7590   -32.7190     4.9740 hc         1 WXT       0.036700
     33 H013       -49.0560   -32.8390     5.4340 hc         1 WXT       0.036700
     34 H021       -49.7410   -33.0570     7.8400 hc         1 WXT       0.041700
     35 H031       -50.7610   -30.6110     6.3650 h1         1 WXT       0.103700
     36 H081       -43.7440   -29.8890     6.4440 h5         1 WXT       0.065800
     37 H212       -54.5820   -30.2290     9.8920 hc         1 WXT       0.038367
     38 H211       -56.0020   -30.0520     8.8680 hc         1 WXT       0.038367
     39 H213       -54.7330   -31.1720     8.3910 hc         1 WXT       0.038367
     40 H232       -52.0770   -32.8880     8.5360 hc         1 WXT       0.036700
     41 H233       -52.5970   -32.5460     6.8780 hc         1 WXT       0.036700
     42 H231       -51.9470   -34.1310     7.3040 hc         1 WXT       0.036700
     43 H041       -48.1510   -31.3260     7.5500 hn         1 WXT       0.506000
     44 H091       -44.4500   -28.1500     4.7430 hn         1 WXT       0.369000
     45 H151       -52.6960   -30.8970     9.0060 hn         1 WXT       0.314500
     46 C23        -51.8470   -33.0590     7.4840 c3         1 WXT      -0.085600
     47 C01        -50.0690   -33.1240     5.7190 c3         1 WXT      -0.085600
@<TRIPOS>BOND
     1     1     3 1   
     2     1     8 1   
     3     1    22 1   
     4     1    23 1   
     5     2     3 1   
     6     2    20 1   
     7     2    21 2   
     8     3     7 1   
     9     3    14 1   
    10     4    10 1   
    11     4    20 1   
    12     4    24 1   
    13     4    25 1   
    14     5    18 ar  
    15     5    19 ar  
    16     5    26 1   
    17     6    12 ar  
    18     6    17 1   
    19     6    18 ar  
    20     7     8 1   
    21     7    27 1   
    22     7    28 1   
    23     8    29 1   
    24     8    30 1   
    25     9    10 1   
    26     9    34 1   
    27     9    46 1   
    28     9    47 1   
    29    10    15 1   
    30    10    35 1   
    31    11    12 ar  
    32    11    15 1   
    33    11    19 ar  
    34    12    16 1   
    35    13    16 2   
    36    13    17 1   
    37    13    36 1   
    38    14    37 1   
    39    14    38 1   
    40    14    39 1   
    41    15    43 1   
    42    17    44 1   
    43    20    45 1   
    44    31    47 1   
    45    32    47 1   
    46    33    47 1   
    47    40    46 1   
    48    41    46 1   
    49    42    46 1   
@<TRIPOS>SUBSTRUCTURE
     1 WXT         1 TEMP              0 ****  ****    0 ROOT
