@<TRIPOS>MOLECULE
WXT
   47    49     1     0     0
SMALL
No Charge or Current Charge


@<TRIPOS>ATOM
      1 C18        -55.1940   -28.3440     6.7600 cy         1 WXT      -0.070400
      2 C16        -53.0090   -29.2690     7.2300 c          1 WXT       0.603100
      3 C17        -54.5170   -29.3850     7.7460 cy         1 WXT      -0.163000
      4 C14        -50.7160   -29.9660     8.0750 c3         1 WXT       0.092000
      5 C12        -48.3940   -27.9930     4.5490 ca         1 WXT       0.182900
      6 C10        -46.2940   -28.6220     5.1790 ca         1 WXT       0.128500
      7 C20        -54.4440   -28.1710     8.7600 cy         1 WXT      -0.070400
      8 C19        -55.7720   -27.7010     8.0690 cy         1 WXT      -0.088400
      9 C02        -50.4540   -32.5120     7.4160 c3         1 WXT      -0.073700
     10 C03        -50.2450   -31.0100     7.0110 c3         1 WXT       0.213500
     11 C05        -48.2200   -29.7820     5.9800 ca         1 WXT       0.449900
     12 C06        -46.8180   -29.6300     5.9450 ca         1 WXT      -0.105600
     13 C08        -44.6800   -29.7840     6.1990 cc         1 WXT       0.398700
     14 C21        -55.1650   -30.7390     8.0960 c3         1 WXT      -0.083100
     15 N04        -48.8080   -30.7880     6.7400 nu         1 WXT      -0.918100
     16 N07        -45.8230   -30.3730     6.5960 nd         1 WXT      -0.558100
     17 N09        -44.9470   -28.7210     5.3400 na         1 WXT      -0.420300
     18 N11        -47.0590   -27.7790     4.4630 nb         1 WXT      -0.223000
     19 N13        -49.0170   -28.9550     5.2730 nb         1 WXT      -0.277000
     20 N15        -52.1750   -29.8000     8.1950 ns         1 WXT      -0.504900
     21 O22        -52.5070   -28.8840     6.1820 o          1 WXT      -0.597100
     22 H182       -54.5700   -27.6390     6.1970 hc         1 WXT       0.061450
     23 H181       -55.9390   -28.7590     6.0730 hc         1 WXT       0.061450
     24 H142       -50.3110   -30.2450     9.0560 h1         1 WXT       0.061700
     25 H141       -50.2980   -28.9840     7.8200 h1         1 WXT       0.061700
     26 H121       -49.0330   -27.3220     3.9780 h5         1 WXT       0.050100
     27 H202       -54.5330   -28.4290     9.8210 hc         1 WXT       0.061450
     28 H201       -53.6220   -27.4490     8.6510 hc         1 WXT       0.061450
     29 H192       -55.9360   -26.6180     8.0370 hc         1 WXT       0.050200
     30 H191       -56.6830   -28.1770     8.4520 hc         1 WXT       0.050200
     31 H012       -50.1410   -34.5290     6.6030 hc         1 WXT       0.036700
     32 H011       -50.5550   -33.3150     5.3740 hc         1 WXT       0.036700
     33 H013       -48.9230   -33.3660     6.0740 hc         1 WXT       0.036700
     34 H021       -49.8300   -32.7100     8.2970 hc         1 WXT       0.041700
     35 H031       -50.8170   -30.8400     6.0870 h1         1 WXT       0.103700
     36 H081       -43.6730   -30.0670     6.4850 h5         1 WXT       0.065800
     37 H212       -54.6230   -31.2400     8.9070 hc         1 WXT       0.038367
     38 H211       -56.2050   -30.6130     8.4200 hc         1 WXT       0.038367
     39 H213       -55.1630   -31.4070     7.2270 hc         1 WXT       0.038367
     40 H232       -52.1880   -32.3750     8.7600 hc         1 WXT       0.036700
     41 H233       -52.6170   -32.5450     7.0380 hc         1 WXT       0.036700
     42 H231       -52.0280   -33.9380     7.9680 hc         1 WXT       0.036700
     43 H041       -48.1320   -31.3740     7.2280 hn         1 WXT       0.506000
     44 H091       -44.2510   -28.1260     4.9110 hn         1 WXT       0.369000
     45 H151       -52.6260   -30.1190     9.0440 hn         1 WXT       0.314500
     46 C23        -51.9110   -32.8580     7.8170 c3         1 WXT      -0.085600
     47 C01        -49.9900   -33.4860     6.2980 c3         1 WXT      -0.085600
@<TRIPOS>BOND
     1     1     3 1   
     2     1     8 1   
     3     1    22 1   
     4     1    23 1   
     5     2     3 1   
     6     2    20 1   
     7     2    21 2   
     8     3     7 1   
     9     3    14 1   
    10     4    10 1   
    11     4    20 1   
    12     4    24 1   
    13     4    25 1   
    14     5    18 ar  
    15     5    19 ar  
    16     5    26 1   
    17     6    12 ar  
    18     6    17 1   
    19     6    18 ar  
    20     7     8 1   
    21     7    27 1   
    22     7    28 1   
    23     8    29 1   
    24     8    30 1   
    25     9    10 1   
    26     9    34 1   
    27     9    46 1   
    28     9    47 1   
    29    10    15 1   
    30    10    35 1   
    31    11    12 ar  
    32    11    15 1   
    33    11    19 ar  
    34    12    16 1   
    35    13    16 2   
    36    13    17 1   
    37    13    36 1   
    38    14    37 1   
    39    14    38 1   
    40    14    39 1   
    41    15    43 1   
    42    17    44 1   
    43    20    45 1   
    44    31    47 1   
    45    32    47 1   
    46    33    47 1   
    47    40    46 1   
    48    41    46 1   
    49    42    46 1   
@<TRIPOS>SUBSTRUCTURE
     1 WXT         1 TEMP              0 ****  ****    0 ROOT
