@<TRIPOS>MOLECULE
WXU
   16    15     1     0     0
SMALL
abcg2


@<TRIPOS>ATOM
      1 C02         37.6030     6.1990   -13.9380 c          1 WXU       0.648000
      2 C03         38.5460     6.3160   -12.6930 c          1 WXU       0.402100
      3 C04         38.5730     5.1570   -11.6900 c3         1 WXU       0.091000
      4 C05         37.3070     5.2930   -10.8300 c3         1 WXU      -0.090100
      5 C06         39.8100     5.2210   -10.8060 c3         1 WXU      -0.090100
      6 O01         37.4610     7.2230   -14.6030 o          1 WXU      -0.690000
      7 O07         38.5950     3.9250   -12.3750 oh         1 WXU      -0.716000
      8 O08         39.1850     7.3240   -12.5210 o          1 WXU      -0.545100
      9 O09         37.0780     5.0730   -14.1270 o          1 WXU      -0.690000
     10 H1          37.2700     4.4780   -10.1040 hc         1 WXU       0.028533
     11 H2          37.2950     6.2340   -10.2790 hc         1 WXU       0.028533
     12 H3          36.4020     5.2450   -11.4360 hc         1 WXU       0.028533
     13 H4          39.8100     4.3750   -10.1170 hc         1 WXU       0.028533
     14 H5          40.7270     5.1770   -11.3950 hc         1 WXU       0.028533
     15 H6          39.8310     6.1320   -10.2110 hc         1 WXU       0.028533
     16 H8          37.9380     4.0410   -13.0980 ho         1 WXU       0.508000
@<TRIPOS>BOND
     1     1     2 1   
     2     1     6 1   
     3     1     9 1   
     4     2     3 1   
     5     2     8 2   
     6     3     4 1   
     7     3     5 1   
     8     3     7 1   
     9     4    10 1   
    10     4    11 1   
    11     4    12 1   
    12     5    13 1   
    13     5    14 1   
    14     5    15 1   
    15     7    16 1   
@<TRIPOS>SUBSTRUCTURE
     1 WXU         1 TEMP              0 ****  ****    0 ROOT
