@<TRIPOS>MOLECULE
WXU
   16    15     1     0     0
SMALL
No Charge or Current Charge


@<TRIPOS>ATOM
      1 C02         37.5240     6.2490   -13.9150 c          1 WXU       0.648000
      2 C03         38.6330     6.3380   -12.7470 c          1 WXU       0.402100
      3 C04         38.5910     5.1780   -11.6820 c3         1 WXU       0.091000
      4 C05         37.2830     5.2760   -10.8580 c3         1 WXU      -0.090100
      5 C06         39.8200     5.2230   -10.7370 c3         1 WXU      -0.090100
      6 O01         37.0970     7.2920   -14.4050 o          1 WXU      -0.690000
      7 O07         38.5990     3.8890   -12.3320 oh         1 WXU      -0.716000
      8 O08         39.4750     7.2440   -12.7120 o          1 WXU      -0.545100
      9 O09         37.1610     5.1320   -14.2810 o          1 WXU      -0.690000
     10 H1          37.2340     4.4810   -10.1030 hc         1 WXU       0.028533
     11 H2          37.2260     6.2400   -10.3380 hc         1 WXU       0.028533
     12 H3          36.3980     5.1860   -11.4990 hc         1 WXU       0.028533
     13 H4          39.7890     4.4000   -10.0120 hc         1 WXU       0.028533
     14 H5          40.7540     5.1380   -11.3060 hc         1 WXU       0.028533
     15 H6          39.8480     6.1650   -10.1750 hc         1 WXU       0.028533
     16 H8          37.9990     3.9820   -13.1220 ho         1 WXU       0.508000
@<TRIPOS>BOND
     1     1     2 1   
     2     1     6 1   
     3     1     9 1   
     4     2     3 1   
     5     2     8 2   
     6     3     4 1   
     7     3     5 1   
     8     3     7 1   
     9     4    10 1   
    10     4    11 1   
    11     4    12 1   
    12     5    13 1   
    13     5    14 1   
    14     5    15 1   
    15     7    16 1   
@<TRIPOS>SUBSTRUCTURE
     1 WXU         1 TEMP              0 ****  ****    0 ROOT
