@<TRIPOS>MOLECULE
WXV
   52    55     1     0     0
SMALL
abcg2


@<TRIPOS>ATOM
      1 C1         -35.1080   176.5510    86.7440 ca         1 WXV      -0.097000
      2 C2         -33.9730   176.6410    85.9920 ca         1 WXV      -0.048000
      3 C3         -33.8270   174.1850    86.0130 ca         1 WXV      -0.071200
      4 C4         -33.3190   175.4360    85.6180 ca         1 WXV      -0.151900
      5 C5         -32.1590   175.1140    84.8640 cc         1 WXV       0.294900
      6 N6         -31.9900   173.7920    84.8130 nd         1 WXV      -0.529100
      7 N7         -32.9900   173.2350    85.5000 na         1 WXV       0.125600
      8 C8         -33.0680   171.7890    85.6320 c3         1 WXV       0.085900
      9 C9         -31.2180   176.0410    84.1950 c          1 WXV       0.548800
     10 O10        -31.3830   177.2650    84.2440 o          1 WXV      -0.609100
     11 C11        -35.6320   175.2870    87.1490 ca         1 WXV      -0.173000
     12 C12        -35.0070   174.0640    86.7980 ca         1 WXV       0.099000
     13 N13        -35.4990   172.8680    87.1760 nb         1 WXV      -0.268000
     14 C14        -36.6110   172.8790    87.9030 ca         1 WXV       0.381900
     15 N15        -37.2990   173.9960    88.2930 nb         1 WXV      -0.226000
     16 C16        -36.8060   175.1520    87.9190 ca         1 WXV       0.169900
     17 N17        -37.1360   171.7080    88.3230 nu         1 WXV      -0.929100
     18 N18        -30.1920   175.4680    83.5440 ns         1 WXV      -0.496900
     19 C19        -36.6350   170.3970    87.9430 c6         1 WXV       0.257500
     20 C20        -36.9960   170.0220    86.4910 c6         1 WXV      -0.105900
     21 C21        -38.3640   169.3650    86.4100 c6         1 WXV       0.216300
     22 N22        -38.3830   168.1100    87.2060 n3         1 WXV      -0.776500
     23 C23        -37.3710   167.9950    88.2780 c6         1 WXV       0.216300
     24 C24        -37.1950   169.3570    88.9300 c6         1 WXV      -0.105900
     25 S25        -38.8930   166.7410    86.4860 s6         1 WXV       1.241100
     26 C26        -37.5930   166.1890    85.4060 c3         1 WXV      -0.388100
     27 O27        -39.0560   165.7420    87.5200 o          1 WXV      -0.540000
     28 O28        -40.0350   167.0820    85.6640 o          1 WXV      -0.540000
     29 C29        -29.1870   176.2430    82.8410 c3         1 WXV       0.099300
     30 H1         -35.6390   177.4450    87.0500 ha         1 WXV       0.120000
     31 H2         -33.5720   177.5930    85.6810 ha         1 WXV       0.149000
     32 H81C       -32.2680   171.3670    85.0300 h1         1 WXV       0.062033
     33 H82C       -32.9440   171.5000    86.6740 h1         1 WXV       0.062033
     34 H83C       -34.0340   171.4340    85.2800 h1         1 WXV       0.062033
     35 H18        -30.1280   174.4620    83.5480 hn         1 WXV       0.332500
     36 H16        -37.3470   176.0430    88.2270 h4         1 WXV       0.028100
     37 H17        -38.0160   171.7700    88.8090 hn         1 WXV       0.510000
     38 H19        -35.5480   170.4270    88.0230 h1         1 WXV       0.073700
     39 H291       -29.6320   176.8200    82.0290 h1         1 WXV       0.041700
     40 H292       -28.6860   176.9370    83.5190 h1         1 WXV       0.041700
     41 H293       -28.4520   175.5570    82.4280 h1         1 WXV       0.041700
     42 H201       -36.9790   170.9140    85.8660 hc         1 WXV       0.062950
     43 H202       -36.2420   169.3390    86.0960 hc         1 WXV       0.062950
     44 H241       -36.5400   169.2620    89.7960 hc         1 WXV       0.062950
     45 H242       -38.1710   169.6850    89.2970 hc         1 WXV       0.062950
     46 H211       -39.1360   170.0340    86.7970 h1         1 WXV       0.061450
     47 H212       -38.6230   169.1390    85.3780 h1         1 WXV       0.061450
     48 H231       -37.7260   167.2710    89.0060 h1         1 WXV       0.061450
     49 H232       -36.4140   167.6370    87.8820 h1         1 WXV       0.061450
     50 H261       -37.9300   165.2680    84.9320 h1         1 WXV       0.098700
     51 H262       -37.4090   166.9590    84.6580 h1         1 WXV       0.098700
     52 H263       -36.7010   166.0060    86.0030 h1         1 WXV       0.098700
@<TRIPOS>BOND
     1     1     2 ar  
     2     1    11 ar  
     3     1    30 1   
     4     2     4 ar  
     5     2    31 1   
     6     3     4 ar  
     7     3     7 1   
     8     3    12 ar  
     9     4     5 1   
    10     5     6 2   
    11     5     9 1   
    12     6     7 1   
    13     7     8 1   
    14     8    32 1   
    15     8    33 1   
    16     8    34 1   
    17     9    10 2   
    18     9    18 1   
    19    11    12 ar  
    20    11    16 ar  
    21    12    13 ar  
    22    13    14 ar  
    23    14    15 ar  
    24    14    17 1   
    25    15    16 ar  
    26    16    36 1   
    27    17    19 1   
    28    17    37 1   
    29    18    29 1   
    30    18    35 1   
    31    19    20 1   
    32    19    24 1   
    33    19    38 1   
    34    20    21 1   
    35    20    42 1   
    36    20    43 1   
    37    21    22 1   
    38    21    46 1   
    39    21    47 1   
    40    22    23 1   
    41    22    25 1   
    42    23    24 1   
    43    23    48 1   
    44    23    49 1   
    45    24    44 1   
    46    24    45 1   
    47    25    26 1   
    48    25    27 2   
    49    25    28 2   
    50    26    50 1   
    51    26    51 1   
    52    26    52 1   
    53    29    39 1   
    54    29    40 1   
    55    29    41 1   
@<TRIPOS>SUBSTRUCTURE
     1 WXV         1 TEMP              0 ****  ****    0 ROOT
