@<TRIPOS>MOLECULE
WXV
   52    55     1     0     0
SMALL
No Charge or Current Charge


@<TRIPOS>ATOM
      1 C1         -34.9370   176.5230    86.8740 ca         1 WXV      -0.097000
      2 C2         -33.7930   176.5190    86.0520 ca         1 WXV      -0.048000
      3 C3         -33.8760   174.0980    86.0090 ca         1 WXV      -0.071200
      4 C4         -33.2890   175.2750    85.6370 ca         1 WXV      -0.151900
      5 C5         -32.1540   174.9100    84.8030 cc         1 WXV       0.294900
      6 N6         -32.0550   173.5680    84.6710 nd         1 WXV      -0.529100
      7 N7         -33.1250   173.0930    85.4210 na         1 WXV       0.125600
      8 C8         -33.4040   171.6520    85.5470 c3         1 WXV       0.085900
      9 C9         -31.2100   175.9010    84.1670 c          1 WXV       0.548800
     10 O10        -31.2790   177.1220    84.2710 o          1 WXV      -0.609100
     11 C11        -35.5440   175.3020    87.2590 ca         1 WXV      -0.173000
     12 C12        -35.0200   174.0540    86.8320 ca         1 WXV       0.099000
     13 N13        -35.6170   172.9060    87.2150 nb         1 WXV      -0.268000
     14 C14        -36.7080   173.0030    87.9990 ca         1 WXV       0.381900
     15 N15        -37.2750   174.1330    88.4510 nb         1 WXV      -0.226000
     16 C16        -36.6880   175.2870    88.0790 ca         1 WXV       0.169900
     17 N17        -37.3300   171.8260    88.3960 nu         1 WXV      -0.929100
     18 N18        -30.2090   175.3080    83.4190 ns         1 WXV      -0.496900
     19 C19        -36.9250   170.4570    88.0230 c6         1 WXV       0.257500
     20 C20        -37.3210   170.1380    86.5500 c6         1 WXV      -0.105900
     21 C21        -38.5910   169.2600    86.4730 c6         1 WXV       0.216300
     22 N22        -38.4340   167.9730    87.2100 n3         1 WXV      -0.776500
     23 C23        -37.5540   168.0330    88.4090 c6         1 WXV       0.216300
     24 C24        -37.5400   169.4470    89.0260 c6         1 WXV      -0.105900
     25 S25        -38.3340   166.5370    86.2680 s6         1 WXV       1.241100
     26 C26        -36.8880   166.7660    85.2460 c3         1 WXV      -0.388100
     27 O27        -38.0780   165.4400    87.2070 o          1 WXV      -0.540000
     28 O28        -39.5390   166.4990    85.4330 o          1 WXV      -0.540000
     29 C29        -29.1630   176.0350    82.6970 c3         1 WXV       0.099300
     30 H1         -35.3520   177.4710    87.2110 ha         1 WXV       0.120000
     31 H2         -33.3260   177.4550    85.7550 ha         1 WXV       0.149000
     32 H81C       -32.6620   171.0780    84.9800 h1         1 WXV       0.062033
     33 H82C       -33.3530   171.3600    86.6030 h1         1 WXV       0.062033
     34 H83C       -34.4040   171.4360    85.1530 h1         1 WXV       0.062033
     35 H18        -30.2220   174.2930    83.3820 hn         1 WXV       0.332500
     36 H16        -37.1420   176.2070    88.4430 h4         1 WXV       0.028100
     37 H17        -38.1460   171.9480    88.9970 hn         1 WXV       0.510000
     38 H19        -35.8290   170.3660    88.0990 h1         1 WXV       0.073700
     39 H291       -29.6210   176.6980    81.9510 h1         1 WXV       0.041700
     40 H292       -28.5740   176.6330    83.4040 h1         1 WXV       0.041700
     41 H293       -28.5030   175.3210    82.1900 h1         1 WXV       0.041700
     42 H201       -37.4680   171.0580    85.9690 hc         1 WXV       0.062950
     43 H202       -36.4920   169.6070    86.0650 hc         1 WXV       0.062950
     44 H241       -36.9610   169.4480    89.9590 hc         1 WXV       0.062950
     45 H242       -38.5670   169.7290    89.2920 hc         1 WXV       0.062950
     46 H211       -39.4240   169.8300    86.9100 h1         1 WXV       0.061450
     47 H212       -38.8600   169.0950    85.4180 h1         1 WXV       0.061450
     48 H231       -37.8930   167.3110    89.1670 h1         1 WXV       0.061450
     49 H232       -36.5200   167.7600    88.1470 h1         1 WXV       0.061450
     50 H261       -36.7590   165.8530    84.6560 h1         1 WXV       0.098700
     51 H262       -37.0670   167.6300    84.5980 h1         1 WXV       0.098700
     52 H263       -36.0340   166.9320    85.9090 h1         1 WXV       0.098700
@<TRIPOS>BOND
     1     1     2 ar  
     2     1    11 ar  
     3     1    30 1   
     4     2     4 ar  
     5     2    31 1   
     6     3     4 ar  
     7     3     7 1   
     8     3    12 ar  
     9     4     5 1   
    10     5     6 2   
    11     5     9 1   
    12     6     7 1   
    13     7     8 1   
    14     8    32 1   
    15     8    33 1   
    16     8    34 1   
    17     9    10 2   
    18     9    18 1   
    19    11    12 ar  
    20    11    16 ar  
    21    12    13 ar  
    22    13    14 ar  
    23    14    15 ar  
    24    14    17 1   
    25    15    16 ar  
    26    16    36 1   
    27    17    19 1   
    28    17    37 1   
    29    18    29 1   
    30    18    35 1   
    31    19    20 1   
    32    19    24 1   
    33    19    38 1   
    34    20    21 1   
    35    20    42 1   
    36    20    43 1   
    37    21    22 1   
    38    21    46 1   
    39    21    47 1   
    40    22    23 1   
    41    22    25 1   
    42    23    24 1   
    43    23    48 1   
    44    23    49 1   
    45    24    44 1   
    46    24    45 1   
    47    25    26 1   
    48    25    27 2   
    49    25    28 2   
    50    26    50 1   
    51    26    51 1   
    52    26    52 1   
    53    29    39 1   
    54    29    40 1   
    55    29    41 1   
@<TRIPOS>SUBSTRUCTURE
     1 WXV         1 TEMP              0 ****  ****    0 ROOT
