@<TRIPOS>MOLECULE
WXX
   53    55     1     0     0
SMALL
No Charge or Current Charge


@<TRIPOS>ATOM
      1 C17        -44.7860   -29.0490     3.1480 ca         1 WXX       0.457900
      2 C14        -44.4380   -34.2070    -0.3640 c6         1 WXX      -0.072400
      3 C13        -44.1960   -34.9020    -1.7360 c6         1 WXX      -0.072900
      4 C12        -45.1610   -34.4120    -2.8540 c6         1 WXX      -0.074400
      5 C11        -45.6050   -32.9480    -2.6240 c6         1 WXX      -0.072900
      6 C10        -46.3670   -32.7780    -1.2780 c6         1 WXX      -0.072400
      7 C19        -43.8700   -29.4570     5.2150 ca         1 WXX       0.200900
      8 C02        -43.4960   -28.1380    -0.2740 c3         1 WXX      -0.086400
      9 C03        -43.4610   -29.0860     0.9500 c3         1 WXX       0.204500
     10 C04        -43.3630   -30.5770     0.5020 c3         1 WXX       0.092000
     11 C07        -45.6670   -32.0970     1.8740 c3         1 WXX      -0.151400
     12 C08        -46.3140   -33.3760     1.2700 c3         1 WXX      -0.060400
     13 C09        -45.9250   -33.8040    -0.1840 c6         1 WXX      -0.061700
     14 C21        -46.1420   -29.3320     5.0880 ca         1 WXX       0.171500
     15 C22        -46.0340   -29.0940     3.7520 ca         1 WXX      -0.401900
     16 C23        -47.3630   -28.9620     3.2330 cc         1 WXX       0.384800
     17 N05        -43.2000   -31.5420     1.6060 ns         1 WXX      -0.501900
     18 N16        -44.6540   -28.8390     1.7870 nu         1 WXX      -0.920100
     19 N18        -43.6780   -29.2300     3.8920 nb         1 WXX      -0.303000
     20 N20        -45.0600   -29.5200     5.8630 nb         1 WXX      -0.226000
     21 N24        -48.2770   -29.1060     4.2030 nd         1 WXX      -0.517100
     22 N25        -47.4960   -29.3320     5.3460 na         1 WXX      -0.169100
     23 O15        -43.8470   -33.0180     3.1590 o          1 WXX      -0.612100
     24 H141       -43.8040   -33.3150    -0.3120 hc         1 WXX       0.038200
     25 H132       -44.3040   -35.9900    -1.6250 hc         1 WXX       0.036700
     26 H131       -43.1550   -34.7320    -2.0430 hc         1 WXX       0.036700
     27 H121       -46.0510   -35.0560    -2.8830 hc         1 WXX       0.038700
     28 H122       -44.6770   -34.5130    -3.8350 hc         1 WXX       0.038700
     29 H111       -44.7170   -32.3000    -2.6260 hc         1 WXX       0.036700
     30 H112       -46.2350   -32.6060    -3.4560 hc         1 WXX       0.036700
     31 H102       -46.2340   -31.7450    -0.9350 hc         1 WXX       0.038200
     32 H101       -47.4460   -32.8940    -1.4530 hc         1 WXX       0.038200
     33 H191       -42.9770   -29.6050     5.8200 h5         1 WXX       0.049100
     34 H022       -44.4110   -28.3150    -0.8540 hc         1 WXX       0.044700
     35 H021       -42.6560   -28.3860    -0.9360 hc         1 WXX       0.044700
     36 H031       -42.5480   -28.8460     1.5160 h1         1 WXX       0.097700
     37 H042       -44.2280   -30.8430    -0.1140 h1         1 WXX       0.055700
     38 H041       -42.4820   -30.6790    -0.1450 h1         1 WXX       0.055700
     39 H071       -45.8340   -31.2530     1.2050 hc         1 WXX       0.054700
     40 H072       -46.2050   -31.8870     2.8050 hc         1 WXX       0.054700
     41 H081       -47.4010   -33.2340     1.3000 hc         1 WXX       0.054200
     42 H082       -46.1180   -34.2130     1.9530 hc         1 WXX       0.054200
     43 H091       -46.5130   -34.7190    -0.3530 hc         1 WXX       0.048700
     44 H231       -47.7220   -28.7770     2.2290 h4         1 WXX       0.043800
     45 H051       -42.2620   -31.7020     1.9510 hn         1 WXX       0.319500
     46 H161       -45.5180   -28.6100     1.3010 hn         1 WXX       0.491000
     47 H251       -47.9180   -29.4810     6.2610 hn         1 WXX       0.388000
     48 C01        -43.3960   -26.6370     0.0810 c3         1 WXX      -0.088100
     49 C06        -44.1810   -32.2660     2.2570 c          1 WXX       0.600100
     50 H142       -44.1130   -34.8700     0.4490 hc         1 WXX       0.038200
     51 H013       -43.3740   -26.0300    -0.8320 hc         1 WXX       0.041033
     52 H011       -44.2550   -26.3150     0.6820 hc         1 WXX       0.041033
     53 H012       -42.4810   -26.4340     0.6500 hc         1 WXX       0.041033
@<TRIPOS>BOND
     1     1    15 ar  
     2     1    18 1   
     3     1    19 ar  
     4     2     3 1   
     5     2    13 1   
     6     2    24 1   
     7     2    50 1   
     8     3     4 1   
     9     3    25 1   
    10     3    26 1   
    11     4     5 1   
    12     4    27 1   
    13     4    28 1   
    14     5     6 1   
    15     5    29 1   
    16     5    30 1   
    17     6    13 1   
    18     6    31 1   
    19     6    32 1   
    20     7    19 ar  
    21     7    20 ar  
    22     7    33 1   
    23     8     9 1   
    24     8    34 1   
    25     8    35 1   
    26     8    48 1   
    27     9    10 1   
    28     9    18 1   
    29     9    36 1   
    30    10    17 1   
    31    10    37 1   
    32    10    38 1   
    33    11    12 1   
    34    11    39 1   
    35    11    40 1   
    36    11    49 1   
    37    12    13 1   
    38    12    41 1   
    39    12    42 1   
    40    13    43 1   
    41    14    15 ar  
    42    14    20 ar  
    43    14    22 1   
    44    15    16 1   
    45    16    21 2   
    46    16    44 1   
    47    17    45 1   
    48    17    49 1   
    49    18    46 1   
    50    21    22 1   
    51    22    47 1   
    52    23    49 2   
    53    48    51 1   
    54    48    52 1   
    55    48    53 1   
@<TRIPOS>SUBSTRUCTURE
     1 WXX         1 TEMP              0 ****  ****    0 ROOT
