@<TRIPOS>MOLECULE
WXX
   53    55     1     0     0
SMALL
abcg2


@<TRIPOS>ATOM
      1 C17        -44.7670   -29.0240     3.1580 ca         1 WXX       0.457900
      2 C14        -44.4540   -34.1670    -0.4540 c6         1 WXX      -0.072400
      3 C13        -44.1240   -34.9590    -1.7330 c6         1 WXX      -0.072900
      4 C12        -45.0700   -34.6040    -2.8990 c6         1 WXX      -0.074400
      5 C11        -45.5920   -33.1740    -2.7600 c6         1 WXX      -0.072900
      6 C10        -46.4480   -33.0250    -1.4890 c6         1 WXX      -0.072400
      7 C19        -43.7570   -29.2410     5.2250 ca         1 WXX       0.200900
      8 C02        -43.4640   -28.0880    -0.1250 c3         1 WXX      -0.086400
      9 C03        -43.4800   -29.0910     1.0260 c3         1 WXX       0.204500
     10 C04        -43.3670   -30.5330     0.5000 c3         1 WXX       0.092000
     11 C07        -45.7860   -32.0700     1.5030 c3         1 WXX      -0.151400
     12 C08        -46.4070   -33.4000     1.0430 c3         1 WXX      -0.060400
     13 C09        -45.9600   -33.9220    -0.3290 c6         1 WXX      -0.061700
     14 C21        -45.9690   -29.1120     5.2290 ca         1 WXX       0.171500
     15 C22        -46.0160   -28.9950     3.8310 ca         1 WXX      -0.401900
     16 C23        -47.3970   -28.8940     3.5200 cc         1 WXX       0.384800
     17 N05        -43.3650   -31.5260     1.5550 ns         1 WXX      -0.501900
     18 N16        -44.6890   -28.9320     1.8220 nu         1 WXX      -0.920100
     19 N18        -43.6480   -29.1460     3.8930 nb         1 WXX      -0.303000
     20 N20        -44.8550   -29.2390     5.9710 nb         1 WXX      -0.226000
     21 N24        -48.1280   -28.9440     4.6200 nd         1 WXX      -0.517100
     22 N25        -47.2520   -29.0770     5.6540 na         1 WXX      -0.169100
     23 O15        -44.2050   -32.9630     3.0550 o          1 WXX      -0.612100
     24 H141       -43.9340   -33.2080    -0.4780 hc         1 WXX       0.038200
     25 H132       -44.1860   -36.0320    -1.5290 hc         1 WXX       0.036700
     26 H131       -43.0900   -34.7560    -2.0220 hc         1 WXX       0.036700
     27 H121       -45.9230   -35.2890    -2.9090 hc         1 WXX       0.038700
     28 H122       -44.5560   -34.7380    -3.8540 hc         1 WXX       0.038700
     29 H111       -44.7410   -32.4870    -2.7150 hc         1 WXX       0.036700
     30 H112       -46.1740   -32.8870    -3.6380 hc         1 WXX       0.036700
     31 H102       -46.4450   -31.9770    -1.1800 hc         1 WXX       0.038200
     32 H101       -47.4890   -33.2770    -1.7120 hc         1 WXX       0.038200
     33 H191       -42.8180   -29.3360     5.7610 h5         1 WXX       0.049100
     34 H022       -44.3570   -28.2450    -0.7400 hc         1 WXX       0.044700
     35 H021       -42.6050   -28.3200    -0.7590 hc         1 WXX       0.044700
     36 H031       -42.6390   -28.9000     1.6900 h1         1 WXX       0.097700
     37 H042       -44.1730   -30.7370    -0.2020 h1         1 WXX       0.055700
     38 H041       -42.4300   -30.6260    -0.0520 h1         1 WXX       0.055700
     39 H071       -45.8210   -31.3360     0.7040 hc         1 WXX       0.054700
     40 H072       -46.3910   -31.6680     2.3190 hc         1 WXX       0.054700
     41 H081       -47.4920   -33.2650     1.0170 hc         1 WXX       0.054200
     42 H082       -46.2060   -34.1570     1.8040 hc         1 WXX       0.054200
     43 H091       -46.4470   -34.8980    -0.4430 hc         1 WXX       0.048700
     44 H231       -47.8740   -28.7910     2.5580 h4         1 WXX       0.043800
     45 H051       -42.4940   -31.6440     2.0540 hn         1 WXX       0.319500
     46 H161       -45.5590   -28.8680     1.3150 hn         1 WXX       0.491000
     47 H251       -47.5910   -29.1370     6.6010 hn         1 WXX       0.388000
     48 C01        -43.3920   -26.6370     0.3400 c3         1 WXX      -0.088100
     49 C06        -44.3950   -32.2180     2.0860 c          1 WXX       0.600100
     50 H142       -44.0790   -34.7010     0.4230 hc         1 WXX       0.038200
     51 H013       -43.3740   -25.9560    -0.5130 hc         1 WXX       0.041033
     52 H011       -44.2520   -26.3780     0.9600 hc         1 WXX       0.041033
     53 H012       -42.4880   -26.4640     0.9300 hc         1 WXX       0.041033
@<TRIPOS>BOND
     1     1    15 ar  
     2     1    18 1   
     3     1    19 ar  
     4     2     3 1   
     5     2    13 1   
     6     2    24 1   
     7     2    50 1   
     8     3     4 1   
     9     3    25 1   
    10     3    26 1   
    11     4     5 1   
    12     4    27 1   
    13     4    28 1   
    14     5     6 1   
    15     5    29 1   
    16     5    30 1   
    17     6    13 1   
    18     6    31 1   
    19     6    32 1   
    20     7    19 ar  
    21     7    20 ar  
    22     7    33 1   
    23     8     9 1   
    24     8    34 1   
    25     8    35 1   
    26     8    48 1   
    27     9    10 1   
    28     9    18 1   
    29     9    36 1   
    30    10    17 1   
    31    10    37 1   
    32    10    38 1   
    33    11    12 1   
    34    11    39 1   
    35    11    40 1   
    36    11    49 1   
    37    12    13 1   
    38    12    41 1   
    39    12    42 1   
    40    13    43 1   
    41    14    15 ar  
    42    14    20 ar  
    43    14    22 1   
    44    15    16 1   
    45    16    21 2   
    46    16    44 1   
    47    17    45 1   
    48    17    49 1   
    49    18    46 1   
    50    21    22 1   
    51    22    47 1   
    52    23    49 2   
    53    48    51 1   
    54    48    52 1   
    55    48    53 1   
@<TRIPOS>SUBSTRUCTURE
     1 WXX         1 TEMP              0 ****  ****    0 ROOT
