@<TRIPOS>MOLECULE
WXY
   41    44     1     0     0
SMALL
abcg2


@<TRIPOS>ATOM
      1 C10        -45.1760   -33.8490    -0.7410 c6         1 WXY      -0.077400
      2 C13        -45.3050   -30.0480     4.3440 ca         1 WXY       0.122500
      3 C15        -44.2330   -28.8000     5.9460 ca         1 WXY       0.131900
      4 C17        -46.4500   -28.9650     6.1210 ca         1 WXY       0.125500
      5 C20        -47.9070   -30.0940     4.7530 cc         1 WXY      -0.211200
      6 C21        -46.5250   -29.7780     4.9560 ca         1 WXY      -0.176800
      7 C02        -45.1960   -30.9760     3.1570 c          1 WXY       0.519600
      8 C04        -46.1920   -29.1520     1.8040 c5         1 WXY       0.102000
      9 C05        -46.1280   -28.9720     0.2950 c5         1 WXY      -0.093400
     10 C06        -46.4800   -30.3640    -0.2220 c5         1 WXY      -0.087400
     11 C07        -45.7660   -31.3380     0.7400 c5         1 WXY       0.136400
     12 C08        -44.3440   -31.6700     0.2490 c6         1 WXY      -0.084900
     13 C09        -44.3490   -32.5840    -0.9790 c6         1 WXY      -0.070400
     14 C11        -46.5960   -33.4990    -0.2940 c6         1 WXY      -0.070400
     15 C12        -46.5770   -32.6230     0.9590 c6         1 WXY      -0.084900
     16 C19        -48.5930   -29.4820     5.7660 cd         1 WXY      -0.151100
     17 N03        -45.7030   -30.5310     2.0000 n          1 WXY      -0.411800
     18 N14        -44.1660   -29.5630     4.8460 nb         1 WXY      -0.172000
     19 N16        -45.3270   -28.4660     6.6290 nb         1 WXY      -0.184000
     20 N18        -47.7150   -28.8030     6.5920 na         1 WXY      -0.331400
     21 O01        -44.6800   -32.0840     3.3360 o          1 WXY      -0.588100
     22 H101       -45.2020   -34.4580    -1.6470 hc         1 WXY       0.043700
     23 H102       -44.6960   -34.4530     0.0370 hc         1 WXY       0.043700
     24 H151       -43.2920   -28.4130     6.3200 h5         1 WXY       0.054100
     25 H201       -48.3330   -30.6900     3.9650 ha         1 WXY       0.216000
     26 H042       -45.5740   -28.4420     2.3500 h1         1 WXY       0.051700
     27 H041       -47.2210   -29.0620     2.1620 h1         1 WXY       0.051700
     28 H1         -45.1180   -28.6900    -0.0090 hc         1 WXY       0.055200
     29 H051       -46.8150   -28.2020    -0.0530 hc         1 WXY       0.055200
     30 H2         -47.5600   -30.5190    -0.1610 hc         1 WXY       0.054700
     31 H061       -46.1800   -30.5210    -1.2550 hc         1 WXY       0.054700
     32 H081       -43.8080   -32.1620     1.0610 hc         1 WXY       0.058700
     33 H082       -43.8130   -30.7400     0.0290 hc         1 WXY       0.058700
     34 H091       -43.3180   -32.8460    -1.2340 hc         1 WXY       0.037950
     35 H092       -44.7540   -32.0500    -1.8440 hc         1 WXY       0.037950
     36 H112       -47.1170   -32.9810    -1.1070 hc         1 WXY       0.037950
     37 H111       -47.1640   -34.4100    -0.0900 hc         1 WXY       0.037950
     38 H121       -47.5920   -32.3490     1.2590 hc         1 WXY       0.058700
     39 H122       -46.1300   -33.1840     1.7800 hc         1 WXY       0.058700
     40 H191       -49.6490   -29.4710     5.9760 h4         1 WXY       0.220000
     41 H181       -47.9710   -28.2680     7.4080 hn         1 WXY       0.366000
@<TRIPOS>BOND
     1     1    13 1   
     2     1    14 1   
     3     1    22 1   
     4     1    23 1   
     5     2     6 ar  
     6     2     7 1   
     7     2    18 ar  
     8     3    18 ar  
     9     3    19 ar  
    10     3    24 1   
    11     4     6 ar  
    12     4    19 ar  
    13     4    20 1   
    14     5     6 1   
    15     5    16 2   
    16     5    25 1   
    17     7    17 1   
    18     7    21 2   
    19     8     9 1   
    20     8    17 1   
    21     8    26 1   
    22     8    27 1   
    23     9    10 1   
    24     9    28 1   
    25     9    29 1   
    26    10    11 1   
    27    10    30 1   
    28    10    31 1   
    29    11    12 1   
    30    11    15 1   
    31    11    17 1   
    32    12    13 1   
    33    12    32 1   
    34    12    33 1   
    35    13    34 1   
    36    13    35 1   
    37    14    15 1   
    38    14    36 1   
    39    14    37 1   
    40    15    38 1   
    41    15    39 1   
    42    16    20 1   
    43    16    40 1   
    44    20    41 1   
@<TRIPOS>SUBSTRUCTURE
     1 WXY         1 TEMP              0 ****  ****    0 ROOT
