@<TRIPOS>MOLECULE
WXY
   41    44     1     0     0
SMALL
No Charge or Current Charge


@<TRIPOS>ATOM
      1 C10        -45.1940   -33.8090    -0.8890 c6         1 WXY      -0.077400
      2 C13        -45.1990   -30.1010     4.5000 ca         1 WXY       0.122500
      3 C15        -44.2520   -28.9170     6.2460 ca         1 WXY       0.131900
      4 C17        -46.5370   -28.8830     6.1050 ca         1 WXY       0.125500
      5 C20        -47.7870   -29.9920     4.5630 cc         1 WXY      -0.211200
      6 C21        -46.4550   -29.6840     4.9920 ca         1 WXY      -0.176800
      7 C02        -45.0410   -30.9860     3.2780 c          1 WXY       0.519600
      8 C04        -46.0060   -29.1280     1.8570 c5         1 WXY       0.102000
      9 C05        -46.1640   -29.0320     0.3240 c5         1 WXY      -0.093400
     10 C06        -46.7040   -30.4410    -0.0070 c5         1 WXY      -0.087400
     11 C07        -45.7730   -31.3840     0.8330 c5         1 WXY       0.136400
     12 C08        -44.3730   -31.6260     0.1690 c6         1 WXY      -0.084900
     13 C09        -44.4630   -32.4660    -1.1340 c6         1 WXY      -0.070400
     14 C11        -46.5840   -33.5900    -0.2420 c6         1 WXY      -0.070400
     15 C12        -46.4630   -32.7670     1.0680 c6         1 WXY      -0.084900
     16 C19        -48.6470   -29.3360     5.4280 cd         1 WXY      -0.151100
     17 N03        -45.6670   -30.5600     2.0760 n          1 WXY      -0.411800
     18 N14        -44.0800   -29.7100     5.1600 nb         1 WXY      -0.172000
     19 N16        -45.4290   -28.4780     6.7540 nb         1 WXY      -0.184000
     20 N18        -47.8730   -28.6370     6.3880 na         1 WXY      -0.331400
     21 O01        -44.4120   -32.0370     3.3470 o          1 WXY      -0.588100
     22 H101       -45.3060   -34.3520    -1.8380 hc         1 WXY       0.043700
     23 H102       -44.5820   -34.4470    -0.2370 hc         1 WXY       0.043700
     24 H151       -43.3500   -28.6010     6.7660 h5         1 WXY       0.054100
     25 H201       -48.0890   -30.6210     3.7260 ha         1 WXY       0.216000
     26 H042       -45.2230   -28.4530     2.2280 h1         1 WXY       0.051700
     27 H041       -46.9480   -28.8680     2.3550 h1         1 WXY       0.051700
     28 H1         -45.2060   -28.8330    -0.1700 hc         1 WXY       0.055200
     29 H051       -46.8520   -28.2340     0.0260 hc         1 WXY       0.055200
     30 H2         -47.7500   -30.5300     0.3090 hc         1 WXY       0.054700
     31 H061       -46.6860   -30.6470    -1.0820 hc         1 WXY       0.054700
     32 H081       -43.7160   -32.1550     0.8710 hc         1 WXY       0.058700
     33 H082       -43.8690   -30.6740    -0.0420 hc         1 WXY       0.058700
     34 H091       -43.4510   -32.6640    -1.5140 hc         1 WXY       0.037950
     35 H092       -44.9760   -31.8990    -1.9220 hc         1 WXY       0.037950
     36 H112       -47.2510   -33.0820    -0.9510 hc         1 WXY       0.037950
     37 H111       -47.0470   -34.5620    -0.0260 hc         1 WXY       0.037950
     38 H121       -47.4580   -32.6210     1.5080 hc         1 WXY       0.058700
     39 H122       -45.8970   -33.3610     1.7960 hc         1 WXY       0.058700
     40 H191       -49.7360   -29.3180     5.4350 h4         1 WXY       0.220000
     41 H181       -48.2230   -28.0670     7.1520 hn         1 WXY       0.366000
@<TRIPOS>BOND
     1     1    13 1   
     2     1    14 1   
     3     1    22 1   
     4     1    23 1   
     5     2     6 ar  
     6     2     7 1   
     7     2    18 ar  
     8     3    18 ar  
     9     3    19 ar  
    10     3    24 1   
    11     4     6 ar  
    12     4    19 ar  
    13     4    20 1   
    14     5     6 1   
    15     5    16 2   
    16     5    25 1   
    17     7    17 1   
    18     7    21 2   
    19     8     9 1   
    20     8    17 1   
    21     8    26 1   
    22     8    27 1   
    23     9    10 1   
    24     9    28 1   
    25     9    29 1   
    26    10    11 1   
    27    10    30 1   
    28    10    31 1   
    29    11    12 1   
    30    11    15 1   
    31    11    17 1   
    32    12    13 1   
    33    12    32 1   
    34    12    33 1   
    35    13    34 1   
    36    13    35 1   
    37    14    15 1   
    38    14    36 1   
    39    14    37 1   
    40    15    38 1   
    41    15    39 1   
    42    16    20 1   
    43    16    40 1   
    44    20    41 1   
@<TRIPOS>SUBSTRUCTURE
     1 WXY         1 TEMP              0 ****  ****    0 ROOT
