@<TRIPOS>MOLECULE
WXZ
   34    36     1     0     0
SMALL
No Charge or Current Charge


@<TRIPOS>ATOM
      1 C1           9.2640    16.4260    -0.8400 ca         1 WXZ       0.010700
      2 C2          10.6140    16.4910    -1.2600 ca         1 WXZ      -0.061300
      3 C3           8.7970    15.4190     0.2270 c6         1 WXZ      -0.168400
      4 C4           8.3190    17.3040    -1.4090 ca         1 WXZ      -0.085000
      5 C5          10.9890    17.4280    -2.2390 ca         1 WXZ      -0.122000
      6 C6          11.6790    15.5390    -0.7010 c6         1 WXZ      -0.017100
      7 C7           9.8320    14.2990     0.5200 c6         1 WXZ      -0.047400
      8 C8           8.3420    16.1500     1.5180 c          1 WXZ       0.716000
      9 C9           8.6830    18.2560    -2.3920 cp         1 WXZ      -0.069000
     10 C10         10.0400    18.3000    -2.7950 ca         1 WXZ      -0.123000
     11 C11         11.2660    14.8560     0.6210 c6         1 WXZ      -0.073400
     12 O12          7.1430    16.1420     1.7590 o          1 WXZ      -0.722000
     13 O13          9.0960    16.9800     2.0050 o          1 WXZ      -0.722000
     14 C14          7.6680    19.1840    -2.9870 cp         1 WXZ       0.012000
     15 C15          8.0120    20.5120    -3.3480 ca         1 WXZ      -0.100500
     16 C16          6.3310    18.7630    -3.2090 ca         1 WXZ      -0.100500
     17 C17          7.0600    21.3830    -3.9070 ca         1 WXZ      -0.106500
     18 C18          5.3790    19.6340    -3.7680 ca         1 WXZ      -0.106500
     19 C19          5.7440    20.9430    -4.1160 ca         1 WXZ       0.109000
     20 Cl20         4.5530    22.0320    -4.8150 cl         1 WXZ      -0.245000
     21 H1           7.9080    14.9010    -0.1590 hc         1 WXZ       0.046700
     22 H2           7.2880    17.2530    -1.0690 ha         1 WXZ       0.115000
     23 H3          12.0220    17.4780    -2.5760 ha         1 WXZ       0.091000
     24 H4          11.8890    14.7670    -1.4540 hc         1 WXZ       0.025700
     25 H5          12.6230    16.0800    -0.5480 hc         1 WXZ       0.025700
     26 H6           9.5630    13.7680     1.4430 hc         1 WXZ       0.027700
     27 H7           9.7970    13.5520    -0.2860 hc         1 WXZ       0.027700
     28 H8          10.3590    19.0050    -3.5580 ha         1 WXZ       0.091000
     29 H9          11.9700    14.0460     0.8550 hc         1 WXZ       0.044200
     30 H10         11.3360    15.5740     1.4480 hc         1 WXZ       0.044200
     31 H12          9.0230    20.8750    -3.1820 ha         1 WXZ       0.122500
     32 H13          6.0320    17.7480    -2.9600 ha         1 WXZ       0.122500
     33 H14          7.3410    22.3990    -4.1740 ha         1 WXZ       0.119000
     34 H15          4.3600    19.2920    -3.9340 ha         1 WXZ       0.119000
@<TRIPOS>BOND
     1     1     2 ar  
     2     1     3 1   
     3     1     4 ar  
     4     2     5 ar  
     5     2     6 1   
     6     3     7 1   
     7     3     8 1   
     8     3    21 1   
     9     4     9 ar  
    10     4    22 1   
    11     5    10 ar  
    12     5    23 1   
    13     6    11 1   
    14     6    24 1   
    15     6    25 1   
    16     7    11 1   
    17     7    26 1   
    18     7    27 1   
    19     8    12 1   
    20     8    13 1   
    21     9    10 ar  
    22     9    14 1   
    23    10    28 1   
    24    11    29 1   
    25    11    30 1   
    26    14    15 ar  
    27    14    16 ar  
    28    15    17 ar  
    29    15    31 1   
    30    16    18 ar  
    31    16    32 1   
    32    17    19 ar  
    33    17    33 1   
    34    18    19 ar  
    35    18    34 1   
    36    19    20 1   
@<TRIPOS>SUBSTRUCTURE
     1 WXZ         1 TEMP              0 ****  ****    0 ROOT
