@<TRIPOS>MOLECULE
WXZ
   34    36     1     0     0
SMALL
abcg2


@<TRIPOS>ATOM
      1 C1           9.2370    16.4500    -0.8520 ca         1 WXZ       0.010700
      2 C2          10.5810    16.5140    -1.2390 ca         1 WXZ      -0.061300
      3 C3           8.7580    15.5030     0.2220 c6         1 WXZ      -0.168400
      4 C4           8.3160    17.3090    -1.4510 ca         1 WXZ      -0.085000
      5 C5          10.9570    17.4560    -2.2010 ca         1 WXZ      -0.122000
      6 C6          11.6190    15.5690    -0.6750 c6         1 WXZ      -0.017100
      7 C7           9.7360    14.3340     0.4240 c6         1 WXZ      -0.047400
      8 C8           8.5060    16.2120     1.5890 c          1 WXZ       0.716000
      9 C9           8.6860    18.2510    -2.4100 cp         1 WXZ      -0.069000
     10 C10         10.0370    18.3160    -2.7760 ca         1 WXZ      -0.123000
     11 C11         11.1640    14.8450     0.5910 c6         1 WXZ      -0.073400
     12 O12          7.7240    15.6140     2.3730 o          1 WXZ      -0.722000
     13 O13          9.1050    17.2900     1.8250 o          1 WXZ      -0.722000
     14 C14          7.6860    19.1600    -3.0120 cp         1 WXZ       0.012000
     15 C15          8.0180    20.4810    -3.3370 ca         1 WXZ      -0.100500
     16 C16          6.3780    18.7320    -3.2670 ca         1 WXZ      -0.100500
     17 C17          7.0850    21.3460    -3.8930 ca         1 WXZ      -0.106500
     18 C18          5.4320    19.5840    -3.8210 ca         1 WXZ      -0.106500
     19 C19          5.7960    20.8880    -4.1290 ca         1 WXZ       0.109000
     20 CL20         4.6090    21.9750    -4.8240 cl         1 WXZ      -0.245000
     21 H1           7.7920    15.0950    -0.0830 hc         1 WXZ       0.046700
     22 H2           7.2820    17.2560    -1.1310 ha         1 WXZ       0.115000
     23 H3          11.9960    17.5090    -2.5060 ha         1 WXZ       0.091000
     24 H4          11.8530    14.8240    -1.4450 hc         1 WXZ       0.025700
     25 H5          12.5480    16.1150    -0.4950 hc         1 WXZ       0.025700
     26 H6           9.4250    13.7470     1.2900 hc         1 WXZ       0.027700
     27 H7           9.6920    13.6720    -0.4470 hc         1 WXZ       0.027700
     28 H8          10.3620    19.0230    -3.5290 ha         1 WXZ       0.091000
     29 H9          11.8450    14.0190     0.8060 hc         1 WXZ       0.044200
     30 H10         11.2080    15.5280     1.4440 hc         1 WXZ       0.044200
     31 H12          9.0150    20.8490    -3.1360 ha         1 WXZ       0.122500
     32 H13          6.0930    17.7120    -3.0460 ha         1 WXZ       0.122500
     33 H14          7.3540    22.3660    -4.1300 ha         1 WXZ       0.119000
     34 H15          4.4280    19.2360    -4.0190 ha         1 WXZ       0.119000
@<TRIPOS>BOND
     1     1     2 ar  
     2     1     3 1   
     3     1     4 ar  
     4     2     5 ar  
     5     2     6 1   
     6     3     7 1   
     7     3     8 1   
     8     3    21 1   
     9     4     9 ar  
    10     4    22 1   
    11     5    10 ar  
    12     5    23 1   
    13     6    11 1   
    14     6    24 1   
    15     6    25 1   
    16     7    11 1   
    17     7    26 1   
    18     7    27 1   
    19     8    12 1   
    20     8    13 1   
    21     9    10 ar  
    22     9    14 1   
    23    10    28 1   
    24    11    29 1   
    25    11    30 1   
    26    14    15 ar  
    27    14    16 ar  
    28    15    17 ar  
    29    15    31 1   
    30    16    18 ar  
    31    16    32 1   
    32    17    19 ar  
    33    17    33 1   
    34    18    19 ar  
    35    18    34 1   
    36    19    20 1   
@<TRIPOS>SUBSTRUCTURE
     1 WXZ         1 TEMP              0 ****  ****    0 ROOT
