@<TRIPOS>MOLECULE
WY0
   46    50     1     0     0
SMALL
No Charge or Current Charge


@<TRIPOS>ATOM
      1 C4         151.6410   116.1890   150.1280 ca         1 WY0       0.140100
      2 N2         154.6690   114.7670   158.0260 n          1 WY0      -0.218000
      3 C10        153.1360   112.9500   150.9010 cx         1 WY0      -0.104400
      4 C2         153.3460   116.1790   151.8610 ca         1 WY0       0.168100
      5 C3         152.6710   115.5610   150.7960 ca         1 WY0      -0.128300
      6 N3         155.3780   114.9290   160.1360 ns         1 WY0      -0.524900
      7 C5         151.2360   117.4820   150.4860 ca         1 WY0      -0.142000
      8 C9         154.1400   113.5260   149.9230 cx         1 WY0      -0.104400
      9 C8         152.8340   114.2440   150.1790 cx         1 WY0      -0.100700
     10 C7         151.7790   114.1670   149.0560 c5         1 WY0       0.180600
     11 C6         151.9040   118.1350   151.5430 ca         1 WY0      -0.066000
     12 C1         152.9590   117.4870   152.2260 ca         1 WY0      -0.150000
     13 N1         153.3060   115.4100   154.5870 nb         1 WY0      -0.726000
     14 C11        154.4420   115.3760   153.8570 ca         1 WY0       0.587300
     15 C16        155.6350   115.3140   158.8560 c          1 WY0       0.622000
     16 O1         151.0640   115.4580   149.1050 os         1 WY0      -0.330100
     17 C17        154.1820   114.0740   160.2240 c5         1 WY0       0.027700
     18 C15        153.4020   115.2120   155.9200 ca         1 WY0       0.395900
     19 C14        154.6250   114.9710   156.5900 ca         1 WY0      -0.127000
     20 C13        155.8000   114.9280   155.8170 ca         1 WY0      -0.030000
     21 C12        155.6970   115.1290   154.4320 ca         1 WY0      -0.175000
     22 O2         154.3890   115.5450   152.4950 os         1 WY0      -0.370400
     23 C18        153.7370   113.9960   158.7250 c          1 WY0       0.565000
     24 C19        154.4970   112.6890   160.8450 c3         1 WY0      -0.077400
     25 O3         152.7930   113.3920   158.2300 o          1 WY0      -0.487000
     26 O4         156.5590   116.0400   158.5310 o          1 WY0      -0.531000
     27 H1         153.3750   113.0010   151.9600 hc         1 WY0       0.078950
     28 H2         152.5980   112.0530   150.6030 hc         1 WY0       0.078950
     29 H3         155.9740   115.2490   160.8920 hn         1 WY0       0.352500
     30 H4         150.4250   117.9720   149.9540 ha         1 WY0       0.132000
     31 H5         154.2720   113.0140   148.9730 hc         1 WY0       0.078950
     32 H6         155.0490   113.9610   150.3320 hc         1 WY0       0.078950
     33 H7         151.0530   113.3570   149.2020 h1         1 WY0       0.060200
     34 H8         152.2240   114.0510   148.0580 h1         1 WY0       0.060200
     35 H9         151.6090   119.1410   151.8330 ha         1 WY0       0.117000
     36 H10        153.4740   117.9990   153.0340 ha         1 WY0       0.128000
     37 H11        153.3800   114.5640   160.7930 h1         1 WY0       0.085700
     38 H12        152.4650   115.2690   156.4720 h4         1 WY0       0.030100
     39 H13        156.7700   114.7280   156.2680 ha         1 WY0       0.132000
     40 H14        156.5790   115.0960   153.8010 ha         1 WY0       0.143000
     41 H15        153.5680   110.8610   161.5880 hc         1 WY0       0.045033
     42 H16        152.5220   112.2910   161.6960 hc         1 WY0       0.045033
     43 H17        152.7980   111.5010   160.1260 hc         1 WY0       0.045033
     44 H18        155.2210   112.1540   160.2170 hc         1 WY0       0.051700
     45 H19        154.9870   112.8380   161.8150 hc         1 WY0       0.051700
     46 C20        153.2690   111.7830   161.0750 c3         1 WY0      -0.092100
@<TRIPOS>BOND
     1     1     5 ar  
     2     1     7 ar  
     3     1    16 1   
     4     2    15 1   
     5     2    19 1   
     6     2    23 1   
     7     3     8 1   
     8     3     9 1   
     9     3    27 1   
    10     3    28 1   
    11     4     5 ar  
    12     4    12 ar  
    13     4    22 1   
    14     5     9 1   
    15     6    15 1   
    16     6    17 1   
    17     6    29 1   
    18     7    11 ar  
    19     7    30 1   
    20     8     9 1   
    21     8    31 1   
    22     8    32 1   
    23     9    10 1   
    24    10    16 1   
    25    10    33 1   
    26    10    34 1   
    27    11    12 ar  
    28    11    35 1   
    29    12    36 1   
    30    13    14 ar  
    31    13    18 ar  
    32    14    21 ar  
    33    14    22 1   
    34    15    26 2   
    35    17    23 1   
    36    17    24 1   
    37    17    37 1   
    38    18    19 ar  
    39    18    38 1   
    40    19    20 ar  
    41    20    21 ar  
    42    20    39 1   
    43    21    40 1   
    44    23    25 2   
    45    24    44 1   
    46    24    45 1   
    47    24    46 1   
    48    41    46 1   
    49    42    46 1   
    50    43    46 1   
@<TRIPOS>SUBSTRUCTURE
     1 WY0         1 TEMP              0 ****  ****    0 ROOT
