@<TRIPOS>MOLECULE
WY0
   46    50     1     0     0
SMALL
abcg2


@<TRIPOS>ATOM
      1 C4         151.7660   116.2740   150.2800 ca         1 WY0       0.140100
      2 N2         154.4470   114.7690   157.8340 n          1 WY0      -0.218000
      3 C10        152.6980   113.0310   151.4980 cx         1 WY0      -0.104400
      4 C2         153.5750   116.2890   151.8320 ca         1 WY0       0.168100
      5 C3         152.7830   115.5920   150.9450 ca         1 WY0      -0.128300
      6 N3         154.6920   115.1460   159.9840 ns         1 WY0      -0.524900
      7 C5         151.5150   117.6180   150.4770 ca         1 WY0      -0.142000
      8 C9         153.8320   113.1860   150.5330 cx         1 WY0      -0.104400
      9 C8         152.7110   114.1750   150.5220 cx         1 WY0      -0.100700
     10 C7         151.7380   114.2210   149.3500 c5         1 WY0       0.180600
     11 C6         152.3370   118.2950   151.3750 ca         1 WY0      -0.066000
     12 C1         153.3610   117.6480   152.0480 ca         1 WY0      -0.150000
     13 N1         153.4440   115.6060   154.4230 nb         1 WY0      -0.726000
     14 C11        154.5760   115.4310   153.7830 ca         1 WY0       0.587300
     15 C16        154.9950   115.6550   158.7800 c          1 WY0       0.622000
     16 O1         151.0580   115.4800   149.4520 os         1 WY0      -0.330100
     17 C17        153.9500   113.9110   159.9280 c5         1 WY0       0.027700
     18 C15        153.4220   115.3920   155.7330 ca         1 WY0       0.395900
     19 C14        154.5330   114.9800   156.4440 ca         1 WY0      -0.127000
     20 C13        155.7250   114.7790   155.7520 ca         1 WY0      -0.030000
     21 C12        155.7590   115.0130   154.3950 ca         1 WY0      -0.175000
     22 O2         154.6200   115.6420   152.4520 os         1 WY0      -0.370400
     23 C18        153.8020   113.7150   158.4300 c          1 WY0       0.565000
     24 C19        154.6710   112.7560   160.6290 c3         1 WY0      -0.077400
     25 O3         153.2410   112.8170   157.8550 o          1 WY0      -0.487000
     26 O4         155.6050   116.6600   158.5010 o          1 WY0      -0.531000
     27 H1         152.8720   113.2480   152.5440 hc         1 WY0       0.078950
     28 H2         151.9770   112.2420   151.3190 hc         1 WY0       0.078950
     29 H3         154.9590   115.5970   160.8440 hn         1 WY0       0.352500
     30 H4         150.7170   118.1260   149.9510 ha         1 WY0       0.132000
     31 H5         153.8840   112.5020   149.6940 hc         1 WY0       0.078950
     32 H6         154.7960   113.4990   150.9080 hc         1 WY0       0.078950
     33 H7         151.0000   113.4190   149.3690 h1         1 WY0       0.060200
     34 H8         152.2680   114.1880   148.3930 h1         1 WY0       0.060200
     35 H9         152.1760   119.3510   151.5470 ha         1 WY0       0.117000
     36 H10        153.9960   118.1950   152.7330 ha         1 WY0       0.128000
     37 H11        152.9510   114.0350   160.3620 h1         1 WY0       0.085700
     38 H12        152.4770   115.5580   156.2390 h4         1 WY0       0.030100
     39 H13        156.6130   114.4470   156.2740 ha         1 WY0       0.132000
     40 H14        156.6660   114.8780   153.8210 ha         1 WY0       0.143000
     41 H15        154.3610   110.7540   161.3570 hc         1 WY0       0.045033
     42 H16        152.8870   111.7100   161.2760 hc         1 WY0       0.045033
     43 H17        153.5940   111.0490   159.8040 hc         1 WY0       0.045033
     44 H18        155.6060   112.5430   160.1050 hc         1 WY0       0.051700
     45 H19        154.9480   113.1140   161.6240 hc         1 WY0       0.051700
     46 C20        153.8270   111.4980   160.7670 c3         1 WY0      -0.092100
@<TRIPOS>BOND
     1     1     5 ar  
     2     1     7 ar  
     3     1    16 1   
     4     2    15 1   
     5     2    19 1   
     6     2    23 1   
     7     3     8 1   
     8     3     9 1   
     9     3    27 1   
    10     3    28 1   
    11     4     5 ar  
    12     4    12 ar  
    13     4    22 1   
    14     5     9 1   
    15     6    15 1   
    16     6    17 1   
    17     6    29 1   
    18     7    11 ar  
    19     7    30 1   
    20     8     9 1   
    21     8    31 1   
    22     8    32 1   
    23     9    10 1   
    24    10    16 1   
    25    10    33 1   
    26    10    34 1   
    27    11    12 ar  
    28    11    35 1   
    29    12    36 1   
    30    13    14 ar  
    31    13    18 ar  
    32    14    21 ar  
    33    14    22 1   
    34    15    26 2   
    35    17    23 1   
    36    17    24 1   
    37    17    37 1   
    38    18    19 ar  
    39    18    38 1   
    40    19    20 ar  
    41    20    21 ar  
    42    20    39 1   
    43    21    40 1   
    44    23    25 2   
    45    24    44 1   
    46    24    45 1   
    47    24    46 1   
    48    41    46 1   
    49    42    46 1   
    50    43    46 1   
@<TRIPOS>SUBSTRUCTURE
     1 WY0         1 TEMP              0 ****  ****    0 ROOT
