@<TRIPOS>MOLECULE
WY1
   34    35     1     0     0
SMALL
abcg2


@<TRIPOS>ATOM
      1 CAB          4.4190     1.1010     1.1580 c3         1 WY1      -0.045800
      2 CAR          4.0560    -0.0510     0.2640 ca         1 WY1      -0.106300
      3 CAP          4.8910    -1.1730     0.1620 ca         1 WY1      -0.069300
      4 CAA          6.1770    -1.2540     0.9370 c3         1 WY1      -0.042800
      5 CAG          4.5170    -2.2330    -0.6570 ca         1 WY1      -0.126000
      6 CAF          3.3390    -2.1910    -1.3880 ca         1 WY1      -0.095000
      7 CAH          2.5250    -1.0760    -1.3210 ca         1 WY1      -0.092000
      8 CAT          2.8830    -0.0120    -0.4980 ca         1 WY1       0.309000
      9 NAM          2.0950     1.1560    -0.4600 nu         1 WY1      -0.960900
     10 C4           0.7550     1.2290    -0.3220 ca         1 WY1       0.395900
     11 N3           0.0580     0.1150    -0.1300 nb         1 WY1      -0.247000
     12 C5           0.1180     2.4870    -0.3700 ca         1 WY1      -0.339000
     13 C6          -1.2400     2.4540    -0.2090 ca         1 WY1       0.258000
     14 CL6         -2.1270     3.9390    -0.2460 cl         1 WY1      -0.197000
     15 N1          -1.9560     1.3590    -0.0270 nb         1 WY1      -0.217000
     16 C2          -1.2560     0.2320     0.0010 ca         1 WY1       0.252300
     17 SAN         -2.0730    -1.2960     0.2300 ss         1 WY1      -0.206300
     18 CAJ         -3.8080    -0.8050     0.3670 c3         1 WY1      -0.106400
     19 CAO         -4.6570    -2.0720     0.5880 c          1 WY1       0.735000
     20 OAC         -4.0500    -3.1580     0.5950 o          1 WY1      -0.711500
     21 OAD         -5.8750    -1.8740     0.7330 o          1 WY1      -0.711500
     22 HAB1         4.9760     1.8700     0.6170 hc         1 WY1       0.038367
     23 HAB2         3.5360     1.5790     1.5800 hc         1 WY1       0.038367
     24 HAB3         5.0440     0.7850     1.9910 hc         1 WY1       0.038367
     25 HAA1         5.9950    -1.3410     2.0100 hc         1 WY1       0.036033
     26 HAA2         6.7570    -2.1240     0.6330 hc         1 WY1       0.036033
     27 HAA3         6.7990    -0.3710     0.7910 hc         1 WY1       0.036033
     28 HAG          5.1620    -3.1010    -0.7260 ha         1 WY1       0.104000
     29 HAF          3.0650    -3.0210    -2.0270 ha         1 WY1       0.115000
     30 HAH          1.6230    -1.0250    -1.9140 ha         1 WY1       0.140000
     31 HAM          2.5830     2.0360    -0.5280 hn         1 WY1       0.493000
     32 H5           0.6660     3.4050    -0.5250 ha         1 WY1       0.126000
     33 HAJ1        -3.9350    -0.1060     1.1940 h1         1 WY1       0.060700
     34 HAJ2        -4.1230    -0.2920    -0.5430 h1         1 WY1       0.060700
@<TRIPOS>BOND
     1     1     2 1   
     2     1    22 1   
     3     1    23 1   
     4     1    24 1   
     5     2     3 ar  
     6     2     8 ar  
     7     3     4 1   
     8     3     5 ar  
     9     4    25 1   
    10     4    26 1   
    11     4    27 1   
    12     5     6 ar  
    13     5    28 1   
    14     6     7 ar  
    15     6    29 1   
    16     7     8 ar  
    17     7    30 1   
    18     8     9 1   
    19     9    10 1   
    20     9    31 1   
    21    10    11 ar  
    22    10    12 ar  
    23    11    16 ar  
    24    12    13 ar  
    25    12    32 1   
    26    13    14 1   
    27    13    15 ar  
    28    15    16 ar  
    29    16    17 1   
    30    17    18 1   
    31    18    19 1   
    32    18    33 1   
    33    18    34 1   
    34    19    20 1   
    35    19    21 1   
@<TRIPOS>SUBSTRUCTURE
     1 WY1         1 TEMP              0 ****  ****    0 ROOT
