@<TRIPOS>MOLECULE
WY1
   34    35     1     0     0
SMALL
No Charge or Current Charge


@<TRIPOS>ATOM
      1 CAB          4.6380     1.2730     1.0170 c3         1 WY1      -0.045800
      2 CAR          4.2290    -0.0220     0.2940 ca         1 WY1      -0.106300
      3 CAP          5.1400    -1.1090     0.1910 ca         1 WY1      -0.069300
      4 CAA          6.5530    -1.0390     0.7680 c3         1 WY1      -0.042800
      5 CAG          4.7470    -2.2900    -0.4660 ca         1 WY1      -0.126000
      6 CAF          3.4730    -2.4000    -1.0350 ca         1 WY1      -0.095000
      7 CAH          2.5760    -1.3260    -0.9510 ca         1 WY1      -0.092000
      8 CAT          2.9350    -0.1380    -0.2830 ca         1 WY1       0.309000
      9 NAM          2.0440     0.9470    -0.2310 nu         1 WY1      -0.960900
     10 C4           0.6620     1.0700    -0.2150 ca         1 WY1       0.395900
     11 N3          -0.0900    -0.0330    -0.0650 nb         1 WY1      -0.247000
     12 C5           0.0920     2.3390    -0.3050 ca         1 WY1      -0.339000
     13 C6          -1.3050     2.4160    -0.2550 ca         1 WY1       0.258000
     14 Cl6         -2.1240     3.9640    -0.3680 cl         1 WY1      -0.197000
     15 N1          -2.0720     1.3200    -0.1170 nb         1 WY1      -0.217000
     16 C2          -1.4270     0.1380    -0.0270 ca         1 WY1       0.252300
     17 SAN         -2.4080    -1.3500     0.1630 ss         1 WY1      -0.206300
     18 CAJ         -4.1690    -0.7520     0.1670 c3         1 WY1      -0.106400
     19 CAO         -5.1780    -1.9010     0.3220 c          1 WY1       0.735000
     20 OAC         -5.6010    -2.4390    -0.6920 o          1 WY1      -0.711500
     21 OAD         -5.5220    -2.2190     1.4520 o          1 WY1      -0.711500
     22 HAB1         4.9960     2.0220     0.3000 hc         1 WY1       0.038367
     23 HAB2         3.8030     1.7140     1.5740 hc         1 WY1       0.038367
     24 HAB3         5.4310     1.1170     1.7550 hc         1 WY1       0.038367
     25 HAA1         6.5300    -1.0220     1.8650 hc         1 WY1       0.036033
     26 HAA2         7.1590    -1.9020     0.4680 hc         1 WY1       0.036033
     27 HAA3         7.0800    -0.1410     0.4240 hc         1 WY1       0.036033
     28 HAG          5.4360    -3.1280    -0.5460 ha         1 WY1       0.104000
     29 HAF          3.1830    -3.3120    -1.5530 ha         1 WY1       0.115000
     30 HAH          1.6070    -1.4170    -1.4290 ha         1 WY1       0.140000
     31 HAM          2.5110     1.8370    -0.0710 hn         1 WY1       0.493000
     32 H5           0.6980     3.2330    -0.4140 ha         1 WY1       0.126000
     33 HAJ1        -4.3130    -0.0490     0.9960 h1         1 WY1       0.060700
     34 HAJ2        -4.3780    -0.2310    -0.7750 h1         1 WY1       0.060700
@<TRIPOS>BOND
     1     1     2 1   
     2     1    22 1   
     3     1    23 1   
     4     1    24 1   
     5     2     3 ar  
     6     2     8 ar  
     7     3     4 1   
     8     3     5 ar  
     9     4    25 1   
    10     4    26 1   
    11     4    27 1   
    12     5     6 ar  
    13     5    28 1   
    14     6     7 ar  
    15     6    29 1   
    16     7     8 ar  
    17     7    30 1   
    18     8     9 1   
    19     9    10 1   
    20     9    31 1   
    21    10    11 ar  
    22    10    12 ar  
    23    11    16 ar  
    24    12    13 ar  
    25    12    32 1   
    26    13    14 1   
    27    13    15 ar  
    28    15    16 ar  
    29    16    17 1   
    30    17    18 1   
    31    18    19 1   
    32    18    33 1   
    33    18    34 1   
    34    19    20 1   
    35    19    21 1   
@<TRIPOS>SUBSTRUCTURE
     1 WY1         1 TEMP              0 ****  ****    0 ROOT
