@<TRIPOS>MOLECULE
WY3
   34    36     1     0     0
SMALL
No Charge or Current Charge


@<TRIPOS>ATOM
      1 C1          -0.0570    -0.3000     0.3630 cc         1 WY3       0.038600
      2 C2          -1.3240     0.4240     0.5750 ca         1 WY3      -0.192800
      3 C3           1.2600     0.0820     1.0270 c3         1 WY3       0.204000
      4 C4          -0.1680    -1.3900    -0.4820 cd         1 WY3      -0.321200
      5 C5          -2.4990     0.0360    -0.1050 ca         1 WY3       0.217100
      6 C6          -1.4040     1.5150     1.4730 ca         1 WY3      -0.023000
      7 N7           2.4770    -0.3110     0.2680 n3         1 WY3      -0.727600
      8 C8          -1.3920    -1.7980    -1.1800 c          1 WY3       0.671300
      9 O9          -2.4940    -1.0320    -0.9560 os         1 WY3      -0.341200
     10 C10         -3.7080     0.7200     0.0840 ca         1 WY3      -0.243000
     11 C11         -2.6180     2.1980     1.6600 ca         1 WY3      -0.173000
     12 C12          3.7270    -0.1990     1.0820 c6         1 WY3       0.129800
     13 C13          2.6280     0.4260    -1.0290 c6         1 WY3       0.129800
     14 O14         -1.4240    -2.7660    -1.9260 o          1 WY3      -0.485000
     15 C15         -3.7660     1.8040     0.9650 ca         1 WY3       0.192100
     16 C16          4.9840    -0.6330     0.2700 c6         1 WY3       0.153100
     17 C17          3.9070    -0.0210    -1.7980 c6         1 WY3       0.153100
     18 O18         -4.9360     2.4740     1.1560 oh         1 WY3      -0.523100
     19 O19          5.0770     0.1290    -0.9580 os         1 WY3      -0.448000
     20 H3           1.2860     1.1670     1.1900 h1         1 WY3       0.049700
     21 H3A          1.2720    -0.3920     2.0180 h1         1 WY3       0.049700
     22 H4           0.6840    -2.0200    -0.6980 ha         1 WY3       0.231000
     23 H6          -0.5390     1.8460     2.0410 ha         1 WY3       0.118000
     24 H10         -4.5930     0.3950    -0.4560 ha         1 WY3       0.140000
     25 H11         -2.6660     3.0360     2.3510 ha         1 WY3       0.136000
     26 H12          3.8690     0.8370     1.4230 h1         1 WY3       0.043450
     27 H12A         3.6550    -0.8280     1.9810 h1         1 WY3       0.043450
     28 H13          1.7550     0.2600    -1.6760 h1         1 WY3       0.043450
     29 H13A         2.6900     1.5090    -0.8460 h1         1 WY3       0.043450
     30 H16          5.8920    -0.4670     0.8670 h1         1 WY3       0.053450
     31 H16A         4.9240    -1.7040     0.0290 h1         1 WY3       0.053450
     32 H17          3.8120    -1.0720    -2.1050 h1         1 WY3       0.053450
     33 H17A         4.0320     0.5900    -2.7030 h1         1 WY3       0.053450
     34 HO18        -5.6230     2.0590     0.5920 ho         1 WY3       0.475000
@<TRIPOS>BOND
     1     1     2 1   
     2     1     3 1   
     3     1     4 2   
     4     2     5 ar  
     5     2     6 ar  
     6     3     7 1   
     7     3    20 1   
     8     3    21 1   
     9     4     8 1   
    10     4    22 1   
    11     5     9 1   
    12     5    10 ar  
    13     6    11 ar  
    14     6    23 1   
    15     7    12 1   
    16     7    13 1   
    17     8     9 1   
    18     8    14 2   
    19    10    15 ar  
    20    10    24 1   
    21    11    15 ar  
    22    11    25 1   
    23    12    16 1   
    24    12    26 1   
    25    12    27 1   
    26    13    17 1   
    27    13    28 1   
    28    13    29 1   
    29    15    18 1   
    30    16    19 1   
    31    16    30 1   
    32    16    31 1   
    33    17    19 1   
    34    17    32 1   
    35    17    33 1   
    36    18    34 1   
@<TRIPOS>SUBSTRUCTURE
     1 WY3         1 TEMP              0 ****  ****    0 ROOT
