@<TRIPOS>MOLECULE
WY3
   34    36     1     0     0
SMALL
bcc


@<TRIPOS>ATOM
      1 C1          -0.0270    -0.1050     0.1570 cc         1 WY3       0.038600
      2 C2          -1.2770     0.5200     0.5130 ca         1 WY3      -0.192800
      3 C3           1.2520     0.4190     0.7490 c3         1 WY3       0.204000
      4 C4          -0.0420    -1.1720    -0.6710 cd         1 WY3      -0.271200
      5 C5          -2.4510    -0.0020    -0.0340 ca         1 WY3       0.217100
      6 C6          -1.4060     1.6070     1.3890 ca         1 WY3      -0.041000
      7 N7           2.4350    -0.1490     0.1570 n3         1 WY3      -0.727600
      8 C8          -1.2650    -1.6870    -1.2310 c          1 WY3       0.746800
      9 O9          -2.4180    -1.0540    -0.8800 os         1 WY3      -0.341200
     10 C10         -3.7010     0.5210     0.2570 ca         1 WY3      -0.261000
     11 C11         -2.6340     2.1430     1.6960 ca         1 WY3      -0.191000
     12 C12          3.5670    -0.1750     1.0670 c6         1 WY3       0.129800
     13 C13          2.8090     0.5080    -1.0840 c6         1 WY3       0.129800
     14 O14         -1.3650    -2.6250    -1.9840 o          1 WY3      -0.560500
     15 C15         -3.7930     1.6000     1.1260 ca         1 WY3       0.192100
     16 C16          4.7390    -0.8680     0.4000 c6         1 WY3       0.129900
     17 C17          4.0030    -0.1940    -1.7000 c6         1 WY3       0.129900
     18 O18         -4.9630     2.1590     1.4550 oh         1 WY3      -0.484100
     19 O19          5.0970    -0.2360    -0.8100 os         1 WY3      -0.401600
     20 H3           1.2520     1.5190     0.6970 h1         1 WY3       0.049700
     21 H3A          1.2340     0.1770     1.8170 h1         1 WY3       0.049700
     22 H4           0.8730    -1.6790    -0.9420 ha         1 WY3       0.181000
     23 H6          -0.5250     2.0430     1.8410 ha         1 WY3       0.136000
     24 H10         -4.5860     0.0840    -0.1910 ha         1 WY3       0.158000
     25 H11         -2.7120     2.9820     2.3740 ha         1 WY3       0.154000
     26 H12          3.8670     0.8370     1.3850 h1         1 WY3       0.043450
     27 H12A         3.2950    -0.7300     1.9680 h1         1 WY3       0.043450
     28 H13          1.9780     0.4700    -1.7920 h1         1 WY3       0.043450
     29 H13A         3.0450     1.5730    -0.9190 h1         1 WY3       0.043450
     30 H16          5.6120    -0.8410     1.0540 h1         1 WY3       0.053450
     31 H16A         4.4800    -1.9210     0.2230 h1         1 WY3       0.053450
     32 H17          3.7110    -1.2100    -2.0010 h1         1 WY3       0.053450
     33 H17A         4.3300     0.3400    -2.5930 h1         1 WY3       0.053450
     34 HO18        -5.6950     1.7200     1.0050 ho         1 WY3       0.436000
@<TRIPOS>BOND
     1     1     2 1   
     2     1     3 1   
     3     1     4 2   
     4     2     5 ar  
     5     2     6 ar  
     6     3     7 1   
     7     3    20 1   
     8     3    21 1   
     9     4     8 1   
    10     4    22 1   
    11     5     9 1   
    12     5    10 ar  
    13     6    11 ar  
    14     6    23 1   
    15     7    12 1   
    16     7    13 1   
    17     8     9 1   
    18     8    14 2   
    19    10    15 ar  
    20    10    24 1   
    21    11    15 ar  
    22    11    25 1   
    23    12    16 1   
    24    12    26 1   
    25    12    27 1   
    26    13    17 1   
    27    13    28 1   
    28    13    29 1   
    29    15    18 1   
    30    16    19 1   
    31    16    30 1   
    32    16    31 1   
    33    17    19 1   
    34    17    32 1   
    35    17    33 1   
    36    18    34 1   
@<TRIPOS>SUBSTRUCTURE
     1 WY3         1 TEMP              0 ****  ****    0 ROOT
