@<TRIPOS>MOLECULE
WY4
   33    35     1     0     0
SMALL
abcg2


@<TRIPOS>ATOM
      1 S1           5.4450    36.0850     4.3170 ss         1 WY4      -0.546000
      2 C2           6.1900    37.7130     3.9210 c3         1 WY4       0.000300
      3 C3           7.6780    37.9000     4.0510 ce         1 WY4       0.471300
      4 N4           8.5030    37.3470     4.8500 nf         1 WY4      -0.636300
      5 C5           8.3910    36.2510     5.6450 cf         1 WY4       0.186600
      6 C6           7.7900    35.0750     5.3320 ce         1 WY4      -0.343400
      7 C7           7.9410    33.9400     6.2240 c          1 WY4       0.605100
      8 O8           8.6610    33.8840     7.2150 o          1 WY4      -0.588100
      9 C31          8.2310    39.0130     3.1490 c          1 WY4       0.627700
     10 O32          9.0710    38.6760     2.2900 o          1 WY4      -0.688500
     11 O33          7.7600    40.1490     3.3830 o          1 WY4      -0.688500
     12 C61          6.8760    34.9400     4.1430 c3         1 WY4       0.176200
     13 C62          7.5670    35.0590     2.8130 cc         1 WY4       0.238300
     14 N63          8.8630    34.6080     2.6440 nc         1 WY4      -0.647000
     15 C64          9.1600    34.8410     1.3800 cd         1 WY4       0.372800
     16 N65          8.1200    35.4110     0.7230 na         1 WY4      -0.161500
     17 C66          7.0940    35.5640     1.6300 cd         1 WY4      -0.184000
     18 C67         10.4300    34.5220     0.6560 c6         1 WY4       0.135300
     19 O68         10.5350    35.2810    -0.5440 os         1 WY4      -0.443000
     20 C69          9.3530    35.1750    -1.3380 c6         1 WY4       0.139600
     21 C70          8.1880    35.8760    -0.6580 c6         1 WY4       0.045600
     22 HC21         5.9110    37.9920     2.9060 h1         1 WY4       0.084700
     23 HC22         5.6990    38.4270     4.5870 h1         1 WY4       0.084700
     24 HC5          8.9540    36.3070     6.5710 h4         1 WY4       0.200000
     25 HC7          7.3210    33.0640     5.9530 h4         1 WY4      -0.038800
     26 H61          6.3890    33.9620     4.2040 h1         1 WY4       0.068700
     27 H66          6.1600    36.0220     1.3590 h4         1 WY4       0.161000
     28 H671        11.2910    34.7700     1.2750 h1         1 WY4       0.064700
     29 H672        10.4690    33.4490     0.4240 h1         1 WY4       0.064700
     30 H691         9.5680    35.6480    -2.2940 h1         1 WY4       0.047700
     31 H692         9.1160    34.1180    -1.5080 h1         1 WY4       0.047700
     32 H701         7.2530    35.6430    -1.1670 h1         1 WY4       0.069700
     33 H702         8.3320    36.9590    -0.6640 h1         1 WY4       0.069700
@<TRIPOS>BOND
     1     1     2 1   
     2     1    12 1   
     3     2     3 1   
     4     2    22 1   
     5     2    23 1   
     6     3     4 2   
     7     3     9 1   
     8     4     5 1   
     9     5     6 2   
    10     5    24 1   
    11     6     7 1   
    12     6    12 1   
    13     7     8 2   
    14     7    25 1   
    15     9    10 1   
    16     9    11 1   
    17    12    13 1   
    18    12    26 1   
    19    13    14 1   
    20    13    17 2   
    21    14    15 2   
    22    15    16 1   
    23    15    18 1   
    24    16    17 1   
    25    16    21 1   
    26    17    27 1   
    27    18    19 1   
    28    18    28 1   
    29    18    29 1   
    30    19    20 1   
    31    20    21 1   
    32    20    30 1   
    33    20    31 1   
    34    21    32 1   
    35    21    33 1   
@<TRIPOS>SUBSTRUCTURE
     1 WY4         1 TEMP              0 ****  ****    0 ROOT
