@<TRIPOS>MOLECULE
WY4
   33    35     1     0     0
SMALL
No Charge or Current Charge


@<TRIPOS>ATOM
      1 S1           5.4120    36.0610     4.1090 ss         1 WY4      -0.546000
      2 C2           6.1720    37.7000     4.6000 c3         1 WY4       0.000300
      3 C3           7.5640    37.9920     4.0130 ce         1 WY4       0.471300
      4 N4           8.6160    37.4310     4.6080 nf         1 WY4      -0.636300
      5 C5           8.5300    36.3310     5.4880 cf         1 WY4       0.186600
      6 C6           7.7710    35.2160     5.2850 ce         1 WY4      -0.343400
      7 C7           7.7630    34.1220     6.2960 c          1 WY4       0.605100
      8 O8           8.4060    34.1620     7.3390 o          1 WY4      -0.588100
      9 C31          7.6670    39.0140     2.8540 c          1 WY4       0.627700
     10 O32          8.7730    39.3160     2.4110 o          1 WY4      -0.688500
     11 O33          6.6430    39.5160     2.3950 o          1 WY4      -0.688500
     12 C61          6.9130    34.9650     4.0490 c3         1 WY4       0.176200
     13 C62          7.6560    35.0480     2.7190 cc         1 WY4       0.238300
     14 N63          8.8040    34.3180     2.5030 nc         1 WY4      -0.647000
     15 C64          9.1950    34.6170     1.2720 cd         1 WY4       0.372800
     16 N65          8.3080    35.4970     0.6940 na         1 WY4      -0.161500
     17 C66          7.3140    35.7800     1.6050 cd         1 WY4      -0.184000
     18 C67         10.4060    34.0660     0.5380 c6         1 WY4       0.135300
     19 O68         10.6790    34.8760    -0.6450 os         1 WY4      -0.443000
     20 C69          9.5090    35.1750    -1.4560 c6         1 WY4       0.139600
     21 C70          8.4770    36.0380    -0.6690 c6         1 WY4       0.045600
     22 HC21         5.4770    38.4960     4.3090 h1         1 WY4       0.084700
     23 HC22         6.2430    37.7420     5.6940 h1         1 WY4       0.084700
     24 HC5          9.1520    36.4160     6.3940 h4         1 WY4       0.200000
     25 HC7          7.1280    33.2390     6.0610 h4         1 WY4      -0.038800
     26 H61          6.5290    33.9380     4.0960 h1         1 WY4       0.068700
     27 H66          6.4810    36.4450     1.4110 h4         1 WY4       0.161000
     28 H671        11.2900    34.0710     1.1910 h1         1 WY4       0.064700
     29 H672        10.2130    33.0300     0.2280 h1         1 WY4       0.064700
     30 H691         9.8250    35.7090    -2.3630 h1         1 WY4       0.047700
     31 H692         9.0430    34.2290    -1.7670 h1         1 WY4       0.047700
     32 H701         7.5110    36.0430    -1.1920 h1         1 WY4       0.069700
     33 H702         8.8370    37.0730    -0.5990 h1         1 WY4       0.069700
@<TRIPOS>BOND
     1     1     2 1   
     2     1    12 1   
     3     2     3 1   
     4     2    22 1   
     5     2    23 1   
     6     3     4 2   
     7     3     9 1   
     8     4     5 1   
     9     5     6 2   
    10     5    24 1   
    11     6     7 1   
    12     6    12 1   
    13     7     8 2   
    14     7    25 1   
    15     9    10 1   
    16     9    11 1   
    17    12    13 1   
    18    12    26 1   
    19    13    14 1   
    20    13    17 2   
    21    14    15 2   
    22    15    16 1   
    23    15    18 1   
    24    16    17 1   
    25    16    21 1   
    26    17    27 1   
    27    18    19 1   
    28    18    28 1   
    29    18    29 1   
    30    19    20 1   
    31    20    21 1   
    32    20    30 1   
    33    20    31 1   
    34    21    32 1   
    35    21    33 1   
@<TRIPOS>SUBSTRUCTURE
     1 WY4         1 TEMP              0 ****  ****    0 ROOT
