@<TRIPOS>MOLECULE
WY5
   55    58     1     0     0
SMALL
No Charge or Current Charge


@<TRIPOS>ATOM
      1 OAC         -6.6160    -0.7310     0.5540 o          1 WY5      -0.456000
      2 CAD         -5.4470    -0.4880     0.2910 c          1 WY5       0.672300
      3 CAC         -4.9810     0.6430    -0.5640 cc         1 WY5      -0.244400
      4 CAJ         -5.9560     1.5850    -1.1750 c          1 WY5       0.723200
      5 OAD         -5.5230     2.4950    -1.8670 o          1 WY5      -0.698500
      6 OAE         -7.1540     1.4500    -0.9880 o          1 WY5      -0.698500
      7 OAA         -4.4700    -1.3050     0.8110 os         1 WY5      -0.384200
      8 CAI         -3.1250    -1.1530     0.6000 ca         1 WY5       0.214100
      9 CAH         -2.2320    -2.0540     1.1920 ca         1 WY5      -0.253000
     10 CAG         -0.8520    -1.9110     0.9850 ca         1 WY5       0.169100
     11 OAB         -0.0080    -2.7920     1.5950 oh         1 WY5      -0.533100
     12 CAF         -0.3500    -0.8600     0.1740 cp         1 WY5      -0.123000
     13 CAE         -1.2720     0.0440    -0.4060 ca         1 WY5      -0.019000
     14 CAA         -2.6540    -0.1050    -0.1950 ca         1 WY5      -0.163800
     15 CAB         -3.6200     0.8110    -0.7870 cd         1 WY5      -0.122200
     16 CAV          1.1110    -0.6760    -0.0680 cp         1 WY5      -0.001000
     17 CAU          1.7800     0.4060     0.5400 ca         1 WY5      -0.098000
     18 CAT          3.1600     0.6420     0.3570 ca         1 WY5      -0.068300
     19 CAO          3.8180     1.8470     1.0830 c6         1 WY5       0.004300
     20 CAP          3.3200     3.1640     0.4060 c3         1 WY5      -0.081100
     21 CAQ          3.3920     1.9160     2.5860 c3         1 WY5      -0.081100
     22 CAN          5.3700     1.7680     1.0430 c6         1 WY5      -0.065400
     23 CAM          5.8890     1.4020    -0.3580 c6         1 WY5      -0.065400
     24 CAL          5.4030    -0.0050    -0.8060 c6         1 WY5       0.004300
     25 CAS          6.2040    -1.1230    -0.0680 c3         1 WY5      -0.079100
     26 CAR          5.7200    -0.1460    -2.3310 c3         1 WY5      -0.079100
     27 CAK          3.8900    -0.2130    -0.5180 ca         1 WY5      -0.065300
     28 CAY          3.2200    -1.3070    -1.1150 ca         1 WY5      -0.119000
     29 CAW          1.8490    -1.5430    -0.9080 ca         1 WY5      -0.052300
     30 CAX          1.1920    -2.7240    -1.6170 c3         1 WY5      -0.042800
     31 H2          -2.6210    -2.8570     1.8120 ha         1 WY5       0.125000
     32 H3          -0.5470    -3.4220     2.1150 ho         1 WY5       0.458000
     33 H4          -0.9020     0.8580    -1.0250 ha         1 WY5       0.122000
     34 H5          -3.2620     1.6300    -1.4080 ha         1 WY5       0.214000
     35 H6           1.1960     1.0710     1.1680 ha         1 WY5       0.116000
     36 H7           2.2350     3.2850     0.5140 hc         1 WY5       0.034200
     37 H8           3.7920     4.0480     0.8490 hc         1 WY5       0.034200
     38 H9           3.5360     3.1750    -0.6680 hc         1 WY5       0.034200
     39 H10          3.5900     0.9650     3.0950 hc         1 WY5       0.034200
     40 H11          3.9480     2.6960     3.1200 hc         1 WY5       0.034200
     41 H12          2.3280     2.1460     2.7160 hc         1 WY5       0.034200
     42 H13          5.8070     2.7260     1.3560 hc         1 WY5       0.037200
     43 H14          5.7290     1.0280     1.7710 hc         1 WY5       0.037200
     44 H15          5.5620     2.1620    -1.0800 hc         1 WY5       0.037700
     45 H16          6.9870     1.4420    -0.3640 hc         1 WY5       0.037700
     46 H17          5.9440    -2.1200    -0.4450 hc         1 WY5       0.031867
     47 H18          7.2860    -0.9970    -0.1990 hc         1 WY5       0.031867
     48 H19          5.9980    -1.1270     1.0080 hc         1 WY5       0.031867
     49 H20          5.5710    -1.1660    -2.7040 hc         1 WY5       0.031867
     50 H21          5.0880     0.5210    -2.9290 hc         1 WY5       0.031867
     51 H22          6.7650     0.1140    -2.5440 hc         1 WY5       0.031867
     52 H23          3.7670    -1.9930    -1.7540 ha         1 WY5       0.101000
     53 H24          1.0860    -3.5780    -0.9390 hc         1 WY5       0.041033
     54 H25          0.1950    -2.4630    -1.9900 hc         1 WY5       0.041033
     55 H26          1.7810    -3.0570    -2.4790 hc         1 WY5       0.041033
@<TRIPOS>BOND
     1     1     2 2   
     2     2     3 1   
     3     2     7 1   
     4     3     4 1   
     5     3    15 2   
     6     4     5 1   
     7     4     6 1   
     8     7     8 1   
     9     8     9 ar  
    10     8    14 ar  
    11     9    10 ar  
    12     9    31 1   
    13    10    11 1   
    14    10    12 ar  
    15    11    32 1   
    16    12    13 ar  
    17    12    16 1   
    18    13    14 ar  
    19    13    33 1   
    20    14    15 1   
    21    15    34 1   
    22    16    17 ar  
    23    16    29 ar  
    24    17    18 ar  
    25    17    35 1   
    26    18    19 1   
    27    18    27 ar  
    28    19    20 1   
    29    19    21 1   
    30    19    22 1   
    31    20    36 1   
    32    20    37 1   
    33    20    38 1   
    34    21    39 1   
    35    21    40 1   
    36    21    41 1   
    37    22    23 1   
    38    22    42 1   
    39    22    43 1   
    40    23    24 1   
    41    23    44 1   
    42    23    45 1   
    43    24    25 1   
    44    24    26 1   
    45    24    27 1   
    46    25    46 1   
    47    25    47 1   
    48    25    48 1   
    49    26    49 1   
    50    26    50 1   
    51    26    51 1   
    52    27    28 ar  
    53    28    29 ar  
    54    28    52 1   
    55    29    30 1   
    56    30    53 1   
    57    30    54 1   
    58    30    55 1   
@<TRIPOS>SUBSTRUCTURE
     1 WY5         1 TEMP              0 ****  ****    0 ROOT
