@<TRIPOS>MOLECULE
WY5
   55    58     1     0     0
SMALL
bcc


@<TRIPOS>ATOM
      1 OAC         -6.4850    -0.7900     0.4950 o          1 WY5      -0.531500
      2 CAD         -5.3550    -0.4650     0.2400 c          1 WY5       0.747800
      3 CAC         -4.8910     0.6970    -0.5050 cc         1 WY5      -0.244400
      4 CAJ         -5.8580     1.7400    -1.0670 c          1 WY5       0.933800
      5 OAD         -5.3310     2.6380    -1.7510 o          1 WY5      -0.803800
      6 OAE         -7.0620     1.6170    -0.7940 o          1 WY5      -0.803800
      7 OAA         -4.3880    -1.3190     0.7210 os         1 WY5      -0.384200
      8 CAI         -3.0670    -1.1540     0.5350 ca         1 WY5       0.214100
      9 CAH         -2.2070    -2.0910     1.0820 ca         1 WY5      -0.271000
     10 CAG         -0.8400    -1.9370     0.8930 ca         1 WY5       0.169100
     11 OAB          0.0450    -2.7910     1.4200 oh         1 WY5      -0.494100
     12 CAF         -0.3230    -0.8610     0.1430 cp         1 WY5      -0.123000
     13 CAE         -1.2110     0.0610    -0.3700 ca         1 WY5      -0.037000
     14 CAA         -2.5940    -0.0630    -0.1890 ca         1 WY5      -0.163800
     15 CAB         -3.5590     0.8530    -0.6980 cd         1 WY5      -0.072200
     16 CAV          1.1350    -0.7000    -0.0680 cp         1 WY5      -0.001000
     17 CAU          1.7860     0.3750     0.5180 ca         1 WY5      -0.116000
     18 CAT          3.1470     0.6320     0.3450 ca         1 WY5      -0.068300
     19 CAO          3.7520     1.8440     1.0430 c6         1 WY5       0.004300
     20 CAP          3.2230     3.1190     0.3730 c3         1 WY5      -0.081100
     21 CAQ          3.3640     1.8740     2.5270 c3         1 WY5      -0.081100
     22 CAN          5.2820     1.8090     0.9630 c6         1 WY5      -0.065400
     23 CAM          5.7790     1.4000    -0.4080 c6         1 WY5      -0.065400
     24 CAL          5.3590    -0.0250    -0.7810 c6         1 WY5       0.004300
     25 CAS          6.1610    -1.0480     0.0350 c3         1 WY5      -0.079100
     26 CAR          5.6720    -0.2280    -2.2670 c3         1 WY5      -0.079100
     27 CAK          3.8750    -0.2210    -0.4910 ca         1 WY5      -0.065300
     28 CAY          3.2130    -1.3080    -1.0680 ca         1 WY5      -0.137000
     29 CAW          1.8660    -1.5760    -0.8810 ca         1 WY5      -0.052300
     30 CAX          1.2300    -2.7530    -1.5620 c3         1 WY5      -0.042800
     31 H2          -2.5990    -2.9240     1.6540 ha         1 WY5       0.143000
     32 H3          -0.4030    -3.5000     1.8960 ho         1 WY5       0.419000
     33 H4          -0.8330     0.9020    -0.9380 ha         1 WY5       0.140000
     34 H5          -3.2140     1.7140    -1.2570 ha         1 WY5       0.164000
     35 H6           1.1960     1.0420     1.1360 ha         1 WY5       0.134000
     36 H7           2.1360     3.1820     0.4490 hc         1 WY5       0.034200
     37 H8           3.6430     4.0050     0.8560 hc         1 WY5       0.034200
     38 H9           3.4770     3.1620    -0.6870 hc         1 WY5       0.034200
     39 H10          3.6400     0.9440     3.0270 hc         1 WY5       0.034200
     40 H11          3.8850     2.6930     3.0280 hc         1 WY5       0.034200
     41 H12          2.2960     2.0330     2.6790 hc         1 WY5       0.034200
     42 H13          5.6720     2.7950     1.2300 hc         1 WY5       0.037200
     43 H14          5.6740     1.1190     1.7170 hc         1 WY5       0.037200
     44 H15          5.3940     2.0950    -1.1620 hc         1 WY5       0.037700
     45 H16          6.8690     1.4730    -0.4560 hc         1 WY5       0.037700
     46 H17          5.8930    -2.0680    -0.2450 hc         1 WY5       0.031867
     47 H18          7.2320    -0.9240    -0.1400 hc         1 WY5       0.031867
     48 H19          5.9840    -0.9480     1.1070 hc         1 WY5       0.031867
     49 H20          5.5120    -1.2540    -2.5990 hc         1 WY5       0.031867
     50 H21          5.0630     0.4260    -2.8940 hc         1 WY5       0.031867
     51 H22          6.7210     0.0110    -2.4560 hc         1 WY5       0.031867
     52 H23          3.7710    -1.9820    -1.7080 ha         1 WY5       0.119000
     53 H24          1.0970    -3.5890    -0.8750 hc         1 WY5       0.041033
     54 H25          0.2450    -2.5080    -1.9620 hc         1 WY5       0.041033
     55 H26          1.8460    -3.1040    -2.3890 hc         1 WY5       0.041033
@<TRIPOS>BOND
     1     1     2 2   
     2     2     3 1   
     3     2     7 1   
     4     3     4 1   
     5     3    15 2   
     6     4     5 1   
     7     4     6 1   
     8     7     8 1   
     9     8     9 ar  
    10     8    14 ar  
    11     9    10 ar  
    12     9    31 1   
    13    10    11 1   
    14    10    12 ar  
    15    11    32 1   
    16    12    13 ar  
    17    12    16 1   
    18    13    14 ar  
    19    13    33 1   
    20    14    15 1   
    21    15    34 1   
    22    16    17 ar  
    23    16    29 ar  
    24    17    18 ar  
    25    17    35 1   
    26    18    19 1   
    27    18    27 ar  
    28    19    20 1   
    29    19    21 1   
    30    19    22 1   
    31    20    36 1   
    32    20    37 1   
    33    20    38 1   
    34    21    39 1   
    35    21    40 1   
    36    21    41 1   
    37    22    23 1   
    38    22    42 1   
    39    22    43 1   
    40    23    24 1   
    41    23    44 1   
    42    23    45 1   
    43    24    25 1   
    44    24    26 1   
    45    24    27 1   
    46    25    46 1   
    47    25    47 1   
    48    25    48 1   
    49    26    49 1   
    50    26    50 1   
    51    26    51 1   
    52    27    28 ar  
    53    28    29 ar  
    54    28    52 1   
    55    29    30 1   
    56    30    53 1   
    57    30    54 1   
    58    30    55 1   
@<TRIPOS>SUBSTRUCTURE
     1 WY5         1 TEMP              0 ****  ****    0 ROOT
