@<TRIPOS>MOLECULE
WY6
   47    49     1     0     0
SMALL
No Charge or Current Charge


@<TRIPOS>ATOM
      1 C18        -46.2050   -29.6840     4.6950 ca         1 WY6      -0.248200
      2 C17        -45.0820   -29.1480     4.0510 ca         1 WY6       0.411900
      3 C15        -44.1570   -28.1130     1.8960 c3         1 WY6       0.218800
      4 C13        -42.7210   -29.1740     0.0370 c3         1 WY6      -0.081400
      5 C12        -43.7710   -29.4230     1.1480 c3         1 WY6       0.071700
      6 C10        -46.4460   -35.1150    -0.1120 ca         1 WY6      -0.106500
      7 C20        -48.1950   -30.3360     5.4120 cc         1 WY6       0.430700
      8 C03        -46.6220   -31.8750     0.2470 c3         1 WY6      -0.159400
      9 C04        -46.3340   -32.7360    -1.0060 c3         1 WY6      -0.028100
     10 C05        -45.6840   -34.0760    -0.6830 ca         1 WY6      -0.089300
     11 C06        -44.3180   -34.2910    -0.9550 ca         1 WY6      -0.106500
     12 C07        -43.7210   -35.5280    -0.6570 ca         1 WY6      -0.105500
     13 C08        -44.4860   -36.5590    -0.0870 ca         1 WY6      -0.108000
     14 C09        -45.8490   -36.3520     0.1850 ca         1 WY6      -0.105500
     15 C22        -46.0540   -30.4890     5.7910 ca         1 WY6       0.257000
     16 C24        -43.7870   -30.2290     5.6110 ca         1 WY6       0.147900
     17 N11        -44.9550   -30.1150     0.6050 ns         1 WY6      -0.507900
     18 N16        -45.1980   -28.3410     2.9260 nu         1 WY6      -0.923100
     19 N19        -47.5480   -29.5790     4.4430 na         1 WY6      -0.304600
     20 N21        -47.3040   -30.9040     6.2530 nd         1 WY6      -0.638700
     21 N23        -44.8310   -30.7790     6.2760 nb         1 WY6      -0.148000
     22 N25        -43.8490   -29.4260     4.5200 nb         1 WY6      -0.265000
     23 O01        -44.6990   -32.0990     1.7030 o          1 WY6      -0.603100
     24 H152       -43.2560   -27.6840     2.3570 h1         1 WY6       0.063200
     25 H151       -44.5230   -27.3830     1.1600 h1         1 WY6       0.063200
     26 H142       -41.4460   -30.2190    -1.3930 hc         1 WY6       0.040700
     27 H143       -41.8290   -31.1720     0.0560 hc         1 WY6       0.040700
     28 H141       -43.0540   -30.9440    -1.2140 hc         1 WY6       0.040700
     29 H131       -41.8520   -28.6690     0.4770 hc         1 WY6       0.040700
     30 H132       -43.1380   -28.4900    -0.7130 hc         1 WY6       0.040700
     31 H121       -43.2970   -30.0780     1.8920 h1         1 WY6       0.107700
     32 H201       -49.2750   -30.4300     5.4540 h5         1 WY6       0.065800
     33 H031       -47.2000   -31.0040    -0.0850 hc         1 WY6       0.069700
     34 H032       -47.2080   -32.4650     0.9590 hc         1 WY6       0.069700
     35 H042       -45.7090   -32.1610    -1.7010 hc         1 WY6       0.047700
     36 H041       -47.2810   -32.9120    -1.5320 hc         1 WY6       0.047700
     37 H061       -43.7170   -33.4980    -1.3940 ha         1 WY6       0.110000
     38 H071       -42.6660   -35.6870    -0.8680 ha         1 WY6       0.115000
     39 H081       -44.0240   -37.5170     0.1430 ha         1 WY6       0.115000
     40 H091       -46.4430   -37.1500     0.6260 ha         1 WY6       0.115000
     41 H241       -42.7930   -30.4560     5.9920 h5         1 WY6       0.048100
     42 H111       -45.5500   -29.6140    -0.0430 hn         1 WY6       0.306500
     43 H161       -46.1560   -28.1490     2.6430 hn         1 WY6       0.475000
     44 H191       -48.0070   -29.0570     3.7070 hn         1 WY6       0.353000
     45 C02        -45.3310   -31.4020     0.9230 c          1 WY6       0.593100
     46 C14        -42.2350   -30.4580    -0.6710 c3         1 WY6      -0.089100
     47 H101       -47.5020   -34.9630     0.1010 ha         1 WY6       0.110000
@<TRIPOS>BOND
     1     1     2 ar  
     2     1    15 ar  
     3     1    19 1   
     4     2    18 1   
     5     2    22 ar  
     6     3     5 1   
     7     3    18 1   
     8     3    24 1   
     9     3    25 1   
    10     4     5 1   
    11     4    29 1   
    12     4    30 1   
    13     4    46 1   
    14     5    17 1   
    15     5    31 1   
    16     6    10 ar  
    17     6    14 ar  
    18     6    47 1   
    19     7    19 1   
    20     7    20 2   
    21     7    32 1   
    22     8     9 1   
    23     8    33 1   
    24     8    34 1   
    25     8    45 1   
    26     9    10 1   
    27     9    35 1   
    28     9    36 1   
    29    10    11 ar  
    30    11    12 ar  
    31    11    37 1   
    32    12    13 ar  
    33    12    38 1   
    34    13    14 ar  
    35    13    39 1   
    36    14    40 1   
    37    15    20 1   
    38    15    21 ar  
    39    16    21 ar  
    40    16    22 ar  
    41    16    41 1   
    42    17    42 1   
    43    17    45 1   
    44    18    43 1   
    45    19    44 1   
    46    23    45 2   
    47    26    46 1   
    48    27    46 1   
    49    28    46 1   
@<TRIPOS>SUBSTRUCTURE
     1 WY6         1 TEMP              0 ****  ****    0 ROOT
