@<TRIPOS>MOLECULE
WY6
   47    49     1     0     0
SMALL
abcg2


@<TRIPOS>ATOM
      1 C18        -46.3680   -28.8660     4.6140 ca         1 WY6      -0.248200
      2 C17        -45.1980   -28.8970     3.8340 ca         1 WY6       0.411900
      3 C15        -44.0520   -29.0330     1.6550 c3         1 WY6       0.218800
      4 C13        -42.5890   -30.8220     0.6180 c3         1 WY6      -0.081400
      5 C12        -43.8010   -30.5400     1.5050 c3         1 WY6       0.071700
      6 C10        -45.4290   -34.8180    -0.4660 ca         1 WY6      -0.106500
      7 C20        -48.3450   -28.7990     5.5630 cc         1 WY6       0.430700
      8 C03        -46.9910   -32.5950     0.9630 c3         1 WY6      -0.159400
      9 C04        -46.9000   -32.7550    -0.5600 c3         1 WY6      -0.028100
     10 C05        -45.7290   -33.5810    -1.0410 ca         1 WY6      -0.089300
     11 C06        -44.9180   -33.1210    -2.0790 ca         1 WY6      -0.106500
     12 C07        -43.8390   -33.8710    -2.5340 ca         1 WY6      -0.105500
     13 C08        -43.5500   -35.1010    -1.9520 ca         1 WY6      -0.108000
     14 C09        -44.3500   -35.5710    -0.9150 ca         1 WY6      -0.105500
     15 C22        -46.2660   -29.0270     5.9990 ca         1 WY6       0.257000
     16 C24        -44.0510   -29.2200     5.8170 ca         1 WY6       0.147900
     17 N11        -44.9890   -31.1960     0.9790 ns         1 WY6      -0.507900
     18 N16        -45.2010   -28.7330     2.4930 nu         1 WY6      -0.923100
     19 N19        -47.7150   -28.7220     4.3620 na         1 WY6      -0.304600
     20 N21        -47.5170   -28.9810     6.5740 nd         1 WY6      -0.638700
     21 N23        -45.0920   -29.2080     6.6370 nb         1 WY6      -0.148000
     22 N25        -44.0380   -29.0820     4.4820 nb         1 WY6      -0.265000
     23 O01        -45.5760   -32.3020     2.8690 o          1 WY6      -0.603100
     24 H152       -43.1660   -28.5620     2.0780 h1         1 WY6       0.063200
     25 H151       -44.2400   -28.5900     0.6760 h1         1 WY6       0.063200
     26 H142       -41.3340   -32.4580    -0.0560 hc         1 WY6       0.040700
     27 H143       -41.9280   -32.6400     1.5990 hc         1 WY6       0.040700
     28 H141       -43.0120   -32.9170     0.2310 hc         1 WY6       0.040700
     29 H131       -41.7540   -30.2180     0.9830 hc         1 WY6       0.040700
     30 H132       -42.8060   -30.4750    -0.3980 hc         1 WY6       0.040700
     31 H121       -43.6350   -30.9610     2.4950 h1         1 WY6       0.107700
     32 H201       -49.4170   -28.7140     5.6420 h5         1 WY6       0.065800
     33 H031       -47.8370   -31.9450     1.2040 hc         1 WY6       0.069700
     34 H032       -47.1980   -33.5530     1.4380 hc         1 WY6       0.069700
     35 H042       -46.8730   -31.7770    -1.0460 hc         1 WY6       0.047700
     36 H041       -47.8320   -33.2210    -0.8920 hc         1 WY6       0.047700
     37 H061       -45.1300   -32.1570    -2.5290 ha         1 WY6       0.110000
     38 H071       -43.2200   -33.4910    -3.3370 ha         1 WY6       0.115000
     39 H081       -42.7070   -35.6850    -2.2990 ha         1 WY6       0.115000
     40 H091       -44.1330   -36.5260    -0.4540 ha         1 WY6       0.115000
     41 H241       -43.0780   -29.3640     6.2750 h5         1 WY6       0.048100
     42 H111       -45.2220   -31.0100     0.0170 hn         1 WY6       0.306500
     43 H161       -46.0980   -28.7250     2.0340 hn         1 WY6       0.475000
     44 H191       -48.1680   -28.5860     3.4710 hn         1 WY6       0.353000
     45 C02        -45.7820   -32.0230     1.6850 c          1 WY6       0.593100
     46 C14        -42.1940   -32.2960     0.5960 c3         1 WY6      -0.089100
     47 H101       -46.0420   -35.1990     0.3420 ha         1 WY6       0.110000
@<TRIPOS>BOND
     1     1     2 ar  
     2     1    15 ar  
     3     1    19 1   
     4     2    18 1   
     5     2    22 ar  
     6     3     5 1   
     7     3    18 1   
     8     3    24 1   
     9     3    25 1   
    10     4     5 1   
    11     4    29 1   
    12     4    30 1   
    13     4    46 1   
    14     5    17 1   
    15     5    31 1   
    16     6    10 ar  
    17     6    14 ar  
    18     6    47 1   
    19     7    19 1   
    20     7    20 2   
    21     7    32 1   
    22     8     9 1   
    23     8    33 1   
    24     8    34 1   
    25     8    45 1   
    26     9    10 1   
    27     9    35 1   
    28     9    36 1   
    29    10    11 ar  
    30    11    12 ar  
    31    11    37 1   
    32    12    13 ar  
    33    12    38 1   
    34    13    14 ar  
    35    13    39 1   
    36    14    40 1   
    37    15    20 1   
    38    15    21 ar  
    39    16    21 ar  
    40    16    22 ar  
    41    16    41 1   
    42    17    42 1   
    43    17    45 1   
    44    18    43 1   
    45    19    44 1   
    46    23    45 2   
    47    26    46 1   
    48    27    46 1   
    49    28    46 1   
@<TRIPOS>SUBSTRUCTURE
     1 WY6         1 TEMP              0 ****  ****    0 ROOT
