@<TRIPOS>MOLECULE
WY7
   31    34     1     0     0
SMALL
No Charge or Current Charge


@<TRIPOS>ATOM
      1 C10        -44.8510   -30.1090     1.2480 cc         1 WY7       0.257300
      2 C13        -45.0860   -32.1330     0.4760 cd         1 WY7       0.178000
      3 C15        -46.9180   -33.7890     0.2050 cc         1 WY7      -0.124000
      4 C17        -45.7120   -35.4240    -0.7180 cd         1 WY7       0.155900
      5 C20        -47.4230   -28.5460     3.0770 cc         1 WY7       0.591400
      6 C02        -47.6910   -29.0250     5.3460 cd         1 WY7       0.734900
      7 C03        -46.3550   -29.3540     5.3980 cc         1 WY7      -0.108600
      8 C05        -44.3680   -29.9490     5.8790 cd         1 WY7       0.536200
      9 C07        -45.5620   -29.2760     4.3060 cc         1 WY7      -0.088000
     10 C09        -45.2000   -28.7740     1.8570 c3         1 WY7       0.040300
     11 C14        -45.6090   -33.4100     0.0730 cd         1 WY7       0.059000
     12 C16        -46.9800   -35.0980    -0.3110 cc         1 WY7      -0.193000
     13 C19        -45.8010   -31.1270     1.0360 cc         1 WY7      -0.229000
     14 N01        -48.5730   -29.0720     6.3400 nv         1 WY7      -1.041900
     15 N04        -45.5910   -29.7950     6.4380 nc         1 WY7      -0.597100
     16 N06        -44.3200   -29.6220     4.5070 nd         1 WY7      -0.420300
     17 N08        -46.0370   -28.8670     3.0760 na         1 WY7      -0.162500
     18 N11        -43.6290   -30.4330     0.8460 nd         1 WY7      -0.318300
     19 N21        -48.2430   -28.6220     4.1580 nd         1 WY7      -0.807000
     20 O12        -43.7730   -31.7750     0.3340 os         1 WY7      -0.067700
     21 O18        -44.8280   -34.3910    -0.4930 os         1 WY7      -0.221000
     22 H151       -47.7470   -33.2200     0.6150 ha         1 WY7       0.147000
     23 H171       -45.3230   -36.3290    -1.1680 h4         1 WY7       0.060100
     24 H201       -47.8290   -28.2270     2.1250 h5         1 WY7       0.049100
     25 H051       -43.4910   -30.2910     6.4160 h5         1 WY7       0.055800
     26 H091       -44.2730   -28.2440     2.1090 h1         1 WY7       0.090200
     27 H092       -45.7210   -28.1730     1.1010 h1         1 WY7       0.090200
     28 H161       -47.8670   -35.7220    -0.3700 ha         1 WY7       0.148000
     29 H191       -46.8560   -31.0940     1.2780 ha         1 WY7       0.154000
     30 H012       -49.5330   -29.1400     6.0330 hn         1 WY7       0.515500
     31 H011       -48.3080   -29.6650     7.1170 hn         1 WY7       0.515500
@<TRIPOS>BOND
     1     1    10 1   
     2     1    13 1   
     3     1    18 2   
     4     2    11 1   
     5     2    13 2   
     6     2    20 1   
     7     3    11 2   
     8     3    12 1   
     9     3    22 1   
    10     4    12 2   
    11     4    21 1   
    12     4    23 1   
    13     5    17 1   
    14     5    19 2   
    15     5    24 1   
    16     6     7 2   
    17     6    14 1   
    18     6    19 1   
    19     7     9 1   
    20     7    15 1   
    21     8    15 2   
    22     8    16 1   
    23     8    25 1   
    24     9    16 2   
    25     9    17 1   
    26    10    17 1   
    27    10    26 1   
    28    10    27 1   
    29    11    21 1   
    30    12    28 1   
    31    13    29 1   
    32    14    30 1   
    33    14    31 1   
    34    18    20 1   
@<TRIPOS>SUBSTRUCTURE
     1 WY7         1 TEMP              0 ****  ****    0 ROOT
