@<TRIPOS>MOLECULE
WY7
   31    34     1     0     0
SMALL
abcg2


@<TRIPOS>ATOM
      1 C10        -45.0430   -30.1100     1.2980 cc         1 WY7       0.257300
      2 C13        -45.3500   -32.1330     0.5210 cd         1 WY7       0.178000
      3 C15        -46.9740   -34.0660     0.1100 cc         1 WY7      -0.124000
      4 C17        -45.4540   -35.4100    -0.8160 cd         1 WY7       0.155900
      5 C20        -47.3130   -28.3600     3.1190 cc         1 WY7       0.591400
      6 C02        -47.6690   -28.9120     5.3370 cd         1 WY7       0.734900
      7 C03        -46.3500   -29.3780     5.4140 cc         1 WY7      -0.108600
      8 C05        -44.4240   -30.1440     5.8390 cd         1 WY7       0.536200
      9 C07        -45.5370   -29.3050     4.2710 cc         1 WY7      -0.088000
     10 C09        -45.2190   -28.7430     1.8860 c3         1 WY7       0.040300
     11 C14        -45.7640   -33.4320     0.0800 cd         1 WY7       0.059000
     12 C16        -46.7680   -35.3500    -0.4710 cc         1 WY7      -0.193000
     13 C19        -46.0280   -31.1090     1.1160 cc         1 WY7      -0.229000
     14 N01        -48.5240   -28.9330     6.3610 nv         1 WY7      -1.041900
     15 N04        -45.6030   -29.9280     6.4270 nc         1 WY7      -0.597100
     16 N06        -44.3160   -29.7870     4.5240 nd         1 WY7      -0.420300
     17 N08        -46.0330   -28.7850     3.1030 na         1 WY7      -0.162500
     18 N11        -43.8680   -30.4880     0.8590 nd         1 WY7      -0.318300
     19 N21        -48.1120   -28.4020     4.1530 nd         1 WY7      -0.807000
     20 O12        -44.0560   -31.7810     0.3520 os         1 WY7      -0.067700
     21 O18        -44.8250   -34.2490    -0.4870 os         1 WY7      -0.221000
     22 H151       -47.8930   -33.6630     0.5020 ha         1 WY7       0.147000
     23 H171       -44.8410   -36.1640    -1.2780 h4         1 WY7       0.060100
     24 H201       -47.6830   -27.9560     2.1850 h5         1 WY7       0.049100
     25 H051       -43.5880   -30.5780     6.3690 h5         1 WY7       0.055800
     26 H091       -44.2490   -28.3110     2.1240 h1         1 WY7       0.090200
     27 H092       -45.7270   -28.0920     1.1750 h1         1 WY7       0.090200
     28 H161       -47.5020   -36.1260    -0.6140 ha         1 WY7       0.148000
     29 H191       -47.0690   -31.0750     1.3880 ha         1 WY7       0.154000
     30 H012       -49.4680   -28.6050     6.2380 hn         1 WY7       0.515500
     31 H011       -48.2500   -29.3200     7.2490 hn         1 WY7       0.515500
@<TRIPOS>BOND
     1     1    10 1   
     2     1    13 1   
     3     1    18 2   
     4     2    11 1   
     5     2    13 2   
     6     2    20 1   
     7     3    11 2   
     8     3    12 1   
     9     3    22 1   
    10     4    12 2   
    11     4    21 1   
    12     4    23 1   
    13     5    17 1   
    14     5    19 2   
    15     5    24 1   
    16     6     7 2   
    17     6    14 1   
    18     6    19 1   
    19     7     9 1   
    20     7    15 1   
    21     8    15 2   
    22     8    16 1   
    23     8    25 1   
    24     9    16 2   
    25     9    17 1   
    26    10    17 1   
    27    10    26 1   
    28    10    27 1   
    29    11    21 1   
    30    12    28 1   
    31    13    29 1   
    32    14    30 1   
    33    14    31 1   
    34    18    20 1   
@<TRIPOS>SUBSTRUCTURE
     1 WY7         1 TEMP              0 ****  ****    0 ROOT
