@<TRIPOS>MOLECULE
WY8
   67    73     1     0     0
SMALL
abcg2


@<TRIPOS>ATOM
      1 C10         20.4210    44.3520    66.3770 c3         1 WY8       0.231600
      2 C13         23.9800    44.5870    66.7700 c5         1 WY8       0.305300
      3 C8          23.9480    43.5770    64.4190 cc         1 WY8       0.414700
      4 C5          26.0230    43.6940    63.9230 ca         1 WY8      -0.073600
      5 C4          25.9120    44.1920    65.2210 ca         1 WY8       0.124500
      6 C1          18.4230    46.7280    63.2310 c5         1 WY8       0.179300
      7 C2          28.0880    44.5420    65.3760 ca         1 WY8       0.180900
      8 C6          27.3140    43.7060    63.3590 ca         1 WY8       0.437900
      9 C24         23.7150    46.0980    66.7650 c5         1 WY8       0.132300
     10 C28         20.1310    48.1440    62.1470 c5         1 WY8      -0.094400
     11 C29         20.3700    46.6580    61.8400 c5         1 WY8       0.087300
     12 C3          18.8460    48.1890    63.0210 c5         1 WY8      -0.122700
     13 C31         22.8820    46.7670    62.2950 cc         1 WY8       0.389400
     14 C33         23.5950    45.2980    60.9190 cd         1 WY8       0.141500
     15 C34         22.2120    45.3360    60.7660 cc         1 WY8       0.101400
     16 C36         22.1590    43.7660    59.2070 cd         1 WY8       0.518800
     17 C38         24.3550    44.3880    60.1230 c          1 WY8       0.523500
     18 C7          19.0290    48.9230    64.3390 c3         1 WY8       0.235600
     19 C40         19.7180    45.9610    63.0300 c5         1 WY8       0.186300
     20 C11         22.2580    46.1590    66.3320 c5         1 WY8       0.165300
     21 C9          21.6660    44.9200    67.0030 c5         1 WY8       0.154300
     22 F1          17.5080    46.3490    62.2310 f          1 WY8      -0.240000
     23 F25         23.8300    46.5680    68.0730 f          1 WY8      -0.237000
     24 N9          24.5720    44.1220    65.5250 na         1 WY8      -0.328300
     25 N7          24.7830    43.3030    63.4490 nd         1 WY8      -0.528100
     26 N3          26.9100    44.6330    65.9930 nb         1 WY8      -0.238000
     27 N1          28.3370    44.1190    64.1330 nb         1 WY8      -0.294000
     28 N30         21.7640    46.2860    61.6470 na         1 WY8      -0.179500
     29 N32         23.9920    46.2030    61.8770 nd         1 WY8      -0.593000
     30 N35         21.4560    44.5930    59.9240 nc         1 WY8      -0.606100
     31 N37         23.5090    43.6470    59.2820 ns         1 WY8      -0.423400
     32 O11         20.6880    44.0670    64.9870 os         1 WY8      -0.631400
     33 O12         22.7300    43.9560    66.9600 os         1 WY8      -0.436000
     34 O39         25.5730    44.2050    60.0990 o          1 WY8      -0.556000
     35 O41         19.5660    44.5610    62.7950 os         1 WY8      -0.531400
     36 O5          19.8390    48.1220    65.2510 os         1 WY8      -0.615400
     37 O7          21.5830    47.3340    66.7780 os         1 WY8      -0.554400
     38 P42         19.7090    43.4370    63.9090 p5         1 WY8       1.155200
     39 P6          21.2560    48.5550    65.8090 p5         1 WY8       1.149200
     40 S26         20.8070    50.1170    67.1050 sh         1 WY8      -0.472200
     41 S43         17.7790    43.3530    64.7050 sh         1 WY8      -0.538200
     42 H1          19.6130    45.0790    66.4530 h1         1 WY8       0.066200
     43 H4          20.1330    43.4320    66.8840 h1         1 WY8       0.066200
     44 H3          24.6660    44.3340    67.5790 h2         1 WY8       0.127700
     45 H8          22.8860    43.4030    64.4070 h5         1 WY8       0.076800
     46 H5          17.9420    46.5340    64.1870 h1         1 WY8       0.091700
     47 H2          28.9540    44.8600    65.9480 h5         1 WY8       0.046100
     48 H7          24.4020    46.6620    66.1390 h1         1 WY8       0.117700
     49 H6          20.9700    48.5550    62.7030 hc         1 WY8       0.078200
     50 H9          20.0230    48.7230    61.2330 hc         1 WY8       0.078200
     51 H10         19.8480    46.3590    60.9330 h1         1 WY8       0.124700
     52 H11         18.0360    48.6980    62.4970 hc         1 WY8       0.099700
     53 H12         22.8140    47.5200    63.0660 h5         1 WY8       0.088100
     54 H13         21.6700    43.1140    58.4940 h5         1 WY8       0.058800
     55 H14         19.4960    49.8940    64.1800 h1         1 WY8       0.070700
     56 H15         18.0750    49.0600    64.8450 h1         1 WY8       0.070700
     57 H16         20.3310    46.1170    63.9120 h1         1 WY8       0.046700
     58 H17         22.2180    46.0650    65.2470 h1         1 WY8       0.078700
     59 H18         21.4250    45.1620    68.0430 h1         1 WY8       0.099700
     60 HN61        28.4860    43.5070    61.7370 hn         1 WY8       0.503500
     61 HN62        26.8050    43.3620    61.4240 hn         1 WY8       0.503500
     62 H21         23.9650    42.9700    58.6800 hn         1 WY8       0.335500
     63 H22         22.0760    50.5640    67.1380 hs         1 WY8       0.331800
     64 H23         18.0520    42.2980    65.4960 hs         1 WY8       0.321800
     65 N6          27.5640    43.3080    62.0950 nv         1 WY8      -1.029900
     66 O27         22.2960    48.8390    64.8040 o          1 WY8      -0.528000
     67 O44         20.2090    42.1770    63.3430 o          1 WY8      -0.448000
@<TRIPOS>BOND
     1     1    21 1   
     2     1    32 1   
     3     1    42 1   
     4     1    43 1   
     5     2     9 1   
     6     2    24 1   
     7     2    33 1   
     8     2    44 1   
     9     3    24 1   
    10     3    25 2   
    11     3    45 1   
    12     4     5 ar  
    13     4     8 ar  
    14     4    25 1   
    15     5    24 1   
    16     5    26 ar  
    17     6    12 1   
    18     6    19 1   
    19     6    22 1   
    20     6    46 1   
    21     7    26 ar  
    22     7    27 ar  
    23     7    47 1   
    24     8    27 ar  
    25     8    65 1   
    26     9    20 1   
    27     9    23 1   
    28     9    48 1   
    29    10    11 1   
    30    10    12 1   
    31    10    49 1   
    32    10    50 1   
    33    11    19 1   
    34    11    28 1   
    35    11    51 1   
    36    12    18 1   
    37    12    52 1   
    38    13    28 1   
    39    13    29 2   
    40    13    53 1   
    41    14    15 2   
    42    14    17 1   
    43    14    29 1   
    44    15    28 1   
    45    15    30 1   
    46    16    30 2   
    47    16    31 1   
    48    16    54 1   
    49    17    31 1   
    50    17    34 2   
    51    18    36 1   
    52    18    55 1   
    53    18    56 1   
    54    19    35 1   
    55    19    57 1   
    56    20    21 1   
    57    20    37 1   
    58    20    58 1   
    59    21    33 1   
    60    21    59 1   
    61    31    62 1   
    62    32    38 1   
    63    35    38 1   
    64    36    39 1   
    65    37    39 1   
    66    38    41 1   
    67    38    67 2   
    68    39    40 1   
    69    39    66 2   
    70    40    63 1   
    71    41    64 1   
    72    60    65 1   
    73    61    65 1   
@<TRIPOS>SUBSTRUCTURE
     1 WY8         1 TEMP              0 ****  ****    0 ROOT
