@<TRIPOS>MOLECULE
WY8
   67    73     1     0     0
SMALL
No Charge or Current Charge


@<TRIPOS>ATOM
      1 C10         20.5250    44.4700    66.3790 c3         1 WY8       0.231600
      2 C13         24.1370    44.8510    66.7240 c5         1 WY8       0.305300
      3 C8          24.0050    44.3080    64.2290 cc         1 WY8       0.414700
      4 C5          26.0280    43.6740    63.8860 ca         1 WY8      -0.073600
      5 C4          25.9510    43.9110    65.2340 ca         1 WY8       0.124500
      6 C1          18.4020    46.4410    63.2820 c5         1 WY8       0.179300
      7 C2          28.1610    43.3610    65.4500 ca         1 WY8       0.180900
      8 C6          27.2680    43.2780    63.3430 ca         1 WY8       0.437900
      9 C24         23.8070    46.3730    66.7780 c5         1 WY8       0.132300
     10 C28         19.8840    48.0990    62.1870 c5         1 WY8      -0.094400
     11 C29         20.3420    46.6310    61.8730 c5         1 WY8       0.087300
     12 C3          18.6450    47.9770    63.1520 c5         1 WY8      -0.122700
     13 C31         22.8480    47.1890    62.0110 cc         1 WY8       0.389400
     14 C33         23.6660    45.6090    60.7860 cd         1 WY8       0.141500
     15 C34         22.3010    45.4630    60.7480 cc         1 WY8       0.101400
     16 C36         22.4130    43.6340    59.3800 cd         1 WY8       0.518800
     17 C38         24.5240    44.6300    60.0540 c          1 WY8       0.523500
     18 C7          18.8120    48.6970    64.5230 c3         1 WY8       0.235600
     19 C40         19.8510    45.8750    63.1400 c5         1 WY8       0.186300
     20 C11         22.3150    46.3620    66.3480 c5         1 WY8       0.165300
     21 C9          21.7910    45.0780    67.0440 c5         1 WY8       0.154300
     22 F1          17.5610    45.9920    62.2550 f          1 WY8      -0.240000
     23 F25         23.9710    46.8610    68.0840 f          1 WY8      -0.237000
     24 N9          24.6670    44.3220    65.4630 na         1 WY8      -0.328300
     25 N7          24.8150    43.8970    63.2400 nd         1 WY8      -0.528100
     26 N3          27.0130    43.7610    66.0500 nb         1 WY8      -0.238000
     27 N1          28.3450    43.1180    64.1290 nb         1 WY8      -0.294000
     28 N30         21.7710    46.4480    61.5470 na         1 WY8      -0.179500
     29 N32         24.0030    46.7070    61.5680 nd         1 WY8      -0.593000
     30 N35         21.6250    44.4860    60.0440 nc         1 WY8      -0.606100
     31 N37         23.7860    43.6950    59.3840 ns         1 WY8      -0.423400
     32 O11         20.8880    43.8570    65.1220 os         1 WY8      -0.631400
     33 O12         22.9120    44.1450    67.0450 os         1 WY8      -0.436000
     34 O39         25.7490    44.6170    60.0340 o          1 WY8      -0.556000
     35 O41         19.8670    44.4510    62.8550 os         1 WY8      -0.531400
     36 O5          19.7650    47.9610    65.3040 os         1 WY8      -0.615400
     37 O7          21.6330    47.5080    66.9260 os         1 WY8      -0.554400
     38 P42         19.8030    43.3420    64.0370 p5         1 WY8       1.155200
     39 P6          21.1090    48.6280    65.8920 p5         1 WY8       1.149200
     40 S26         20.3550    50.0780    67.1880 sh         1 WY8      -0.472200
     41 S43         17.9390    43.6270    64.9560 sh         1 WY8      -0.538200
     42 H1          19.7870    45.2720    66.2420 h1         1 WY8       0.066200
     43 H4          20.0970    43.7240    67.0610 h1         1 WY8       0.066200
     44 H3          24.8990    44.6210    67.4790 h2         1 WY8       0.127700
     45 H8          22.9730    44.6080    64.1100 h5         1 WY8       0.076800
     46 H5          17.9320    46.1960    64.2420 h1         1 WY8       0.091700
     47 H2          29.0290    43.2340    66.0950 h5         1 WY8       0.046100
     48 H7          24.4410    46.9640    66.1050 h1         1 WY8       0.117700
     49 H6          20.6720    48.6980    62.6510 hc         1 WY8       0.078200
     50 H9          19.6230    48.6270    61.2610 hc         1 WY8       0.078200
     51 H10         19.7610    46.2630    61.0160 h1         1 WY8       0.124700
     52 H11         17.7680    48.4510    62.6940 hc         1 WY8       0.099700
     53 H12         22.7370    48.0450    62.6630 h5         1 WY8       0.088100
     54 H13         22.0200    42.8180    58.7860 h5         1 WY8       0.058800
     55 H14         19.1240    49.7370    64.3560 h1         1 WY8       0.070700
     56 H15         17.8420    48.7180    65.0380 h1         1 WY8       0.070700
     57 H16         20.4840    46.0910    64.0040 h1         1 WY8       0.046700
     58 H17         22.2030    46.3240    65.2570 h1         1 WY8       0.078700
     59 H18         21.5450    45.3080    68.0900 h1         1 WY8       0.099700
     60 HN61        28.4210    43.0740    61.6780 hn         1 WY8       0.503500
     61 HN62        26.7890    43.5400    61.3850 hn         1 WY8       0.503500
     62 H21         24.3120    43.0070    58.8650 hn         1 WY8       0.335500
     63 H22         21.1720    50.9380    66.5350 hs         1 WY8       0.331800
     64 H23         17.7220    42.3160    64.6950 hs         1 WY8       0.321800
     65 N6          27.4610    43.0870    62.0090 nv         1 WY8      -1.029900
     66 O27         22.1020    49.0920    64.8910 o          1 WY8      -0.528000
     67 O44         20.0240    41.9450    63.5800 o          1 WY8      -0.448000
@<TRIPOS>BOND
     1     1    21 1   
     2     1    32 1   
     3     1    42 1   
     4     1    43 1   
     5     2     9 1   
     6     2    24 1   
     7     2    33 1   
     8     2    44 1   
     9     3    24 1   
    10     3    25 2   
    11     3    45 1   
    12     4     5 ar  
    13     4     8 ar  
    14     4    25 1   
    15     5    24 1   
    16     5    26 ar  
    17     6    12 1   
    18     6    19 1   
    19     6    22 1   
    20     6    46 1   
    21     7    26 ar  
    22     7    27 ar  
    23     7    47 1   
    24     8    27 ar  
    25     8    65 1   
    26     9    20 1   
    27     9    23 1   
    28     9    48 1   
    29    10    11 1   
    30    10    12 1   
    31    10    49 1   
    32    10    50 1   
    33    11    19 1   
    34    11    28 1   
    35    11    51 1   
    36    12    18 1   
    37    12    52 1   
    38    13    28 1   
    39    13    29 2   
    40    13    53 1   
    41    14    15 2   
    42    14    17 1   
    43    14    29 1   
    44    15    28 1   
    45    15    30 1   
    46    16    30 2   
    47    16    31 1   
    48    16    54 1   
    49    17    31 1   
    50    17    34 2   
    51    18    36 1   
    52    18    55 1   
    53    18    56 1   
    54    19    35 1   
    55    19    57 1   
    56    20    21 1   
    57    20    37 1   
    58    20    58 1   
    59    21    33 1   
    60    21    59 1   
    61    31    62 1   
    62    32    38 1   
    63    35    38 1   
    64    36    39 1   
    65    37    39 1   
    66    38    41 1   
    67    38    67 2   
    68    39    40 1   
    69    39    66 2   
    70    40    63 1   
    71    41    64 1   
    72    60    65 1   
    73    61    65 1   
@<TRIPOS>SUBSTRUCTURE
     1 WY8         1 TEMP              0 ****  ****    0 ROOT
