@<TRIPOS>MOLECULE
WY9
   44    46     1     0     0
SMALL
abcg2


@<TRIPOS>ATOM
      1 C4         161.7920   134.7300   155.6340 c          1 WY9       0.621000
      2 C5         161.4370   134.0340   153.2820 ca         1 WY9      -0.130000
      3 C8         161.1770   134.5140   150.6370 ca         1 WY9       0.591300
      4 N3         160.1070   134.1630   151.3120 nb         1 WY9      -0.728000
      5 N1         161.7730   134.0920   156.8150 ns         1 WY9      -0.524900
      6 C6         162.5680   134.3980   152.5540 ca         1 WY9      -0.031000
      7 C1         162.3220   130.3430   157.3750 c3         1 WY9      -0.092100
      8 C10        158.9800   135.6740   148.6380 ca         1 WY9      -0.137000
      9 C11        157.7930   135.5100   147.9300 ca         1 WY9      -0.072000
     10 C12        157.4720   134.3280   147.2830 ca         1 WY9      -0.104300
     11 C13        156.1880   134.1740   146.5250 c3         1 WY9      -0.033800
     12 C14        158.3940   133.2690   147.3500 ca         1 WY9       0.148100
     13 C15        158.9490   131.0590   146.6770 c3         1 WY9       0.147900
     14 C16        159.5850   133.4110   148.0540 ca         1 WY9      -0.196000
     15 C17        160.2320   133.9350   152.6150 ca         1 WY9       0.396900
     16 C18        161.3270   132.5120   155.2160 c          1 WY9       0.564000
     17 C3         161.5170   132.6770   156.7130 c5         1 WY9       0.027700
     18 C7         162.4440   134.6550   151.2080 ca         1 WY9      -0.176000
     19 C9         159.8600   134.6140   148.6880 ca         1 WY9       0.145100
     20 N2         161.5130   133.7530   154.6600 n          1 WY9      -0.215000
     21 O1         161.9940   135.8970   155.3930 o          1 WY9      -0.531000
     22 O2         161.0790   134.7560   149.3180 os         1 WY9      -0.373400
     23 O4         161.0720   131.5020   154.6100 o          1 WY9      -0.488000
     24 H1         163.5580   131.9820   156.6810 hc         1 WY9       0.051200
     25 H2         162.8760   132.2090   158.2780 hc         1 WY9       0.051200
     26 H3         161.9650   134.5630   157.6840 hn         1 WY9       0.351500
     27 H4         163.5330   134.4740   153.0390 ha         1 WY9       0.132000
     28 H5         163.1300   129.8080   157.8720 hc         1 WY9       0.045033
     29 H6         161.4120   130.1830   157.9550 hc         1 WY9       0.045033
     30 H7         162.1790   129.8890   156.3960 hc         1 WY9       0.045033
     31 H8         159.2090   136.6110   149.1290 ha         1 WY9       0.129000
     32 H9         157.0940   136.3360   147.8820 ha         1 WY9       0.116000
     33 H10        155.5770   133.3630   146.9230 hc         1 WY9       0.043033
     34 H11        155.5990   135.0890   146.5800 hc         1 WY9       0.043033
     35 H12        156.3620   133.9540   145.4700 hc         1 WY9       0.043033
     36 H13        158.4820   130.2800   146.0800 h1         1 WY9       0.041700
     37 H14        159.9020   131.3310   146.2160 h1         1 WY9       0.041700
     38 H15        159.1410   130.6670   147.6790 h1         1 WY9       0.041700
     39 H16        160.3090   132.6090   148.1180 ha         1 WY9       0.129000
     40 H17        159.3290   133.6610   153.1500 h4         1 WY9       0.030100
     41 H18        160.5800   132.4120   157.2160 h1         1 WY9       0.086700
     42 H19        163.2970   134.9400   150.6070 ha         1 WY9       0.142000
     43 C2         162.6570   131.8250   157.2790 c3         1 WY9      -0.078400
     44 O3         158.0450   132.1450   146.6980 os         1 WY9      -0.341100
@<TRIPOS>BOND
     1     1     5 1   
     2     1    20 1   
     3     1    21 2   
     4     2     6 ar  
     5     2    15 ar  
     6     2    20 1   
     7     3     4 ar  
     8     3    18 ar  
     9     3    22 1   
    10     4    15 ar  
    11     5    17 1   
    12     5    26 1   
    13     6    18 ar  
    14     6    27 1   
    15     7    28 1   
    16     7    29 1   
    17     7    30 1   
    18     7    43 1   
    19     8     9 ar  
    20     8    19 ar  
    21     8    31 1   
    22     9    10 ar  
    23     9    32 1   
    24    10    11 1   
    25    10    12 ar  
    26    11    33 1   
    27    11    34 1   
    28    11    35 1   
    29    12    14 ar  
    30    12    44 1   
    31    13    36 1   
    32    13    37 1   
    33    13    38 1   
    34    13    44 1   
    35    14    19 ar  
    36    14    39 1   
    37    15    40 1   
    38    16    17 1   
    39    16    20 1   
    40    16    23 2   
    41    17    41 1   
    42    17    43 1   
    43    18    42 1   
    44    19    22 1   
    45    24    43 1   
    46    25    43 1   
@<TRIPOS>SUBSTRUCTURE
     1 WY9         1 TEMP              0 ****  ****    0 ROOT
