@<TRIPOS>MOLECULE
WY9
   44    46     1     0     0
SMALL
No Charge or Current Charge


@<TRIPOS>ATOM
      1 C4         162.1210   134.7820   155.6130 c          1 WY9       0.621000
      2 C5         161.5120   133.7740   153.4020 ca         1 WY9      -0.130000
      3 C8         161.1660   133.8210   150.6560 ca         1 WY9       0.591300
      4 N3         160.2030   133.2520   151.4120 nb         1 WY9      -0.728000
      5 N1         162.1110   134.4070   156.9210 ns         1 WY9      -0.524900
      6 C6         162.5150   134.3530   152.6000 ca         1 WY9      -0.031000
      7 C1         162.1510   130.6910   158.1140 c3         1 WY9      -0.092100
      8 C10        158.8760   134.9150   149.0920 ca         1 WY9      -0.137000
      9 C11        157.6600   135.0600   148.4040 ca         1 WY9      -0.072000
     10 C12        157.3910   134.2780   147.2630 ca         1 WY9      -0.104300
     11 C13        156.0660   134.4460   146.5260 c3         1 WY9      -0.033800
     12 C14        158.3530   133.3480   146.8090 ca         1 WY9       0.148100
     13 C15        158.9800   131.6280   145.1450 c3         1 WY9       0.147900
     14 C16        159.5740   133.2070   147.5060 ca         1 WY9      -0.196000
     15 C17        160.3770   133.2330   152.7530 ca         1 WY9       0.396900
     16 C18        161.3090   132.6150   155.6180 c          1 WY9       0.564000
     17 C3         161.6110   133.0320   157.0960 c5         1 WY9       0.027700
     18 C7         162.3330   134.3670   151.2090 ca         1 WY9      -0.176000
     19 C9         159.8260   133.9780   148.6490 ca         1 WY9       0.145100
     20 N2         161.6460   133.7290   154.8460 n          1 WY9      -0.215000
     21 O1         162.4730   135.8800   155.2170 o          1 WY9      -0.531000
     22 O2         161.0360   133.8340   149.2880 os         1 WY9      -0.373400
     23 O4         160.8810   131.5500   155.1880 o          1 WY9      -0.488000
     24 H1         163.5580   132.0450   157.1810 hc         1 WY9       0.051200
     25 H2         162.9560   132.5820   158.7380 hc         1 WY9       0.051200
     26 H3         162.4110   135.0590   157.6380 hn         1 WY9       0.351500
     27 H4         163.4210   134.7690   153.0360 ha         1 WY9       0.132000
     28 H5         162.9140   130.1390   158.6760 hc         1 WY9       0.045033
     29 H6         161.2390   130.7270   158.7230 hc         1 WY9       0.045033
     30 H7         161.9350   130.1300   157.1980 hc         1 WY9       0.045033
     31 H8         159.0760   135.5320   149.9640 ha         1 WY9       0.129000
     32 H9         156.9300   135.7850   148.7570 ha         1 WY9       0.116000
     33 H10        155.5070   133.5040   146.5040 hc         1 WY9       0.043033
     34 H11        155.4250   135.1980   147.0020 hc         1 WY9       0.043033
     35 H12        156.2320   134.7630   145.4890 hc         1 WY9       0.043033
     36 H13        158.5500   131.1530   144.2550 h1         1 WY9       0.041700
     37 H14        159.9260   132.1020   144.8540 h1         1 WY9       0.041700
     38 H15        159.1910   130.8420   145.8810 h1         1 WY9       0.041700
     39 H16        160.3350   132.5060   147.1790 ha         1 WY9       0.129000
     40 H17        159.5670   132.7850   153.3260 h4         1 WY9       0.030100
     41 H18        160.6660   133.0180   157.6550 h1         1 WY9       0.086700
     42 H19        163.0850   134.7980   150.5570 ha         1 WY9       0.142000
     43 C2         162.6500   132.1160   157.7940 c3         1 WY9      -0.078400
     44 O3         158.0650   132.5990   145.6830 os         1 WY9      -0.341100
@<TRIPOS>BOND
     1     1     5 1   
     2     1    20 1   
     3     1    21 2   
     4     2     6 ar  
     5     2    15 ar  
     6     2    20 1   
     7     3     4 ar  
     8     3    18 ar  
     9     3    22 1   
    10     4    15 ar  
    11     5    17 1   
    12     5    26 1   
    13     6    18 ar  
    14     6    27 1   
    15     7    28 1   
    16     7    29 1   
    17     7    30 1   
    18     7    43 1   
    19     8     9 ar  
    20     8    19 ar  
    21     8    31 1   
    22     9    10 ar  
    23     9    32 1   
    24    10    11 1   
    25    10    12 ar  
    26    11    33 1   
    27    11    34 1   
    28    11    35 1   
    29    12    14 ar  
    30    12    44 1   
    31    13    36 1   
    32    13    37 1   
    33    13    38 1   
    34    13    44 1   
    35    14    19 ar  
    36    14    39 1   
    37    15    40 1   
    38    16    17 1   
    39    16    20 1   
    40    16    23 2   
    41    17    41 1   
    42    17    43 1   
    43    18    42 1   
    44    19    22 1   
    45    24    43 1   
    46    25    43 1   
@<TRIPOS>SUBSTRUCTURE
     1 WY9         1 TEMP              0 ****  ****    0 ROOT
