@<TRIPOS>MOLECULE
WYA
   35    38     1     0     0
SMALL
No Charge or Current Charge


@<TRIPOS>ATOM
      1 C15        -42.8990   -35.2970    -3.1580 ca         1 WYA      -0.201000
      2 C17        -42.7480   -34.3660    -5.3930 ca         1 WYA       0.128000
      3 C20        -43.6820   -32.5670    -7.1760 ca         1 WYA       0.062900
      4 C22        -43.8140   -33.4720    -5.0430 ca         1 WYA       0.067000
      5 C01        -44.6000   -35.5610    -0.7430 c3         1 WYA       0.207100
      6 C03        -45.3940   -33.1730    -1.1830 c3         1 WYA       0.199500
      7 C04        -45.4540   -32.8730     0.3070 cc         1 WYA       0.369800
      8 C07        -44.8590   -32.4010     2.3880 cc         1 WYA       0.317000
      9 C08        -43.9850   -32.1030     3.5480 c          1 WYA       0.496500
     10 C11        -42.1740   -32.3420     1.8730 cc         1 WYA      -0.083400
     11 C12        -43.0140   -32.6210     0.7920 cd         1 WYA      -0.197100
     12 C14        -43.9410   -34.3970    -2.8880 ca         1 WYA       0.392900
     13 C16        -42.2980   -35.2810    -4.4240 ca         1 WYA       0.000000
     14 C19        -42.6390   -33.4470    -7.5080 ca         1 WYA       0.262900
     15 N02        -44.5830   -34.3640    -1.6240 nh         1 WYA      -0.792300
     16 N05        -46.5550   -32.7900     1.0460 nd         1 WYA      -0.360000
     17 N06        -46.1840   -32.4950     2.3480 nd         1 WYA      -0.287000
     18 N10        -42.6550   -32.0970     3.1710 ns         1 WYA      -0.407100
     19 N13        -44.3790   -32.6310     1.1300 na         1 WYA      -0.236900
     20 N18        -42.1670   -34.3490    -6.6180 nb         1 WYA      -0.596000
     21 N21        -44.2600   -32.5810    -5.9590 nb         1 WYA      -0.108000
     22 N23        -44.3720   -33.5140    -3.8110 nb         1 WYA      -0.248000
     23 O09        -44.3420   -31.8850     4.7000 o          1 WYA      -0.493000
     24 H151       -42.5460   -35.9920    -2.4030 ha         1 WYA       0.133000
     25 H201       -44.0590   -31.8410    -7.8940 h4         1 WYA       0.032100
     26 H013       -45.4880   -35.5650    -0.0960 h1         1 WYA       0.052367
     27 H012       -44.6320   -36.4820    -1.3400 h1         1 WYA       0.052367
     28 H011       -43.7060   -35.5840    -0.1060 h1         1 WYA       0.052367
     29 H031       -45.0040   -32.2600    -1.6510 h1         1 WYA       0.095200
     30 H032       -46.4260   -33.2870    -1.5410 h1         1 WYA       0.095200
     31 H111       -41.0880   -32.2910     1.8090 h4         1 WYA       0.220000
     32 H121       -42.7020   -32.8260    -0.2320 h4         1 WYA       0.263000
     33 H161       -41.4880   -35.9680    -4.6560 ha         1 WYA       0.140000
     34 H191       -42.1770   -33.4290    -8.4940 h4         1 WYA       0.034100
     35 H101       -41.9980   -31.8990     3.9210 hn         1 WYA       0.337500
@<TRIPOS>BOND
     1     1    12 ar  
     2     1    13 ar  
     3     1    24 1   
     4     2     4 ar  
     5     2    13 ar  
     6     2    20 ar  
     7     3    14 ar  
     8     3    21 ar  
     9     3    25 1   
    10     4    21 ar  
    11     4    22 ar  
    12     5    15 1   
    13     5    26 1   
    14     5    27 1   
    15     5    28 1   
    16     6     7 1   
    17     6    15 1   
    18     6    29 1   
    19     6    30 1   
    20     7    16 2   
    21     7    19 1   
    22     8     9 1   
    23     8    17 2   
    24     8    19 1   
    25     9    18 1   
    26     9    23 2   
    27    10    11 2   
    28    10    18 1   
    29    10    31 1   
    30    11    19 1   
    31    11    32 1   
    32    12    15 1   
    33    12    22 ar  
    34    13    33 1   
    35    14    20 ar  
    36    14    34 1   
    37    16    17 1   
    38    18    35 1   
@<TRIPOS>SUBSTRUCTURE
     1 WYA         1 TEMP              0 ****  ****    0 ROOT
