@<TRIPOS>MOLECULE
WYA
   35    38     1     0     0
SMALL
abcg2


@<TRIPOS>ATOM
      1 C15        -43.5940   -35.8550    -3.1600 ca         1 WYA      -0.201000
      2 C17        -42.6840   -34.3490    -4.7940 ca         1 WYA       0.128000
      3 C20        -42.5460   -31.8360    -5.6720 ca         1 WYA       0.062900
      4 C22        -43.4050   -33.3010    -4.1520 ca         1 WYA       0.067000
      5 C01        -45.2100   -36.2410    -0.8580 c3         1 WYA       0.207100
      6 C03        -45.9230   -33.8630    -0.9640 c3         1 WYA       0.199500
      7 C04        -45.4850   -33.3940     0.3820 cc         1 WYA       0.369800
      8 C07        -44.3600   -32.4680     1.9980 cc         1 WYA       0.317000
      9 C08        -43.3000   -31.6950     2.6420 c          1 WYA       0.496500
     10 C11        -42.4350   -31.3770     0.3740 cc         1 WYA      -0.083400
     11 C12        -43.4100   -32.0880    -0.2080 cd         1 WYA      -0.197100
     12 C14        -44.2910   -34.7390    -2.5790 ca         1 WYA       0.392900
     13 C16        -42.8100   -35.6530    -4.2490 ca         1 WYA       0.000000
     14 C19        -41.8430   -32.8770    -6.3070 ca         1 WYA       0.262900
     15 N02        -45.0820   -34.9330    -1.4900 nh         1 WYA      -0.792300
     16 N05        -46.0920   -33.6590     1.5240 nd         1 WYA      -0.360000
     17 N06        -45.3910   -33.0800     2.5420 nd         1 WYA      -0.287000
     18 N10        -42.3890   -31.1950     1.7430 ns         1 WYA      -0.407100
     19 N13        -44.3760   -32.6380     0.6330 na         1 WYA      -0.236900
     20 N18        -41.9090   -34.1210    -5.8730 nb         1 WYA      -0.596000
     21 N21        -43.3130   -32.0310    -4.6180 nb         1 WYA      -0.108000
     22 N23        -44.1840   -33.5100    -3.0750 nb         1 WYA      -0.248000
     23 O09        -43.2200   -31.5050     3.8490 o          1 WYA      -0.493000
     24 H151       -43.7010   -36.8450    -2.7450 ha         1 WYA       0.133000
     25 H201       -42.4660   -30.8220    -6.0520 h4         1 WYA       0.032100
     26 H013       -45.8030   -36.1280     0.0460 h1         1 WYA       0.052367
     27 H012       -45.7120   -36.9560    -1.5150 h1         1 WYA       0.052367
     28 H011       -44.2350   -36.6400    -0.5740 h1         1 WYA       0.052367
     29 H031       -45.9160   -33.0390    -1.6730 h1         1 WYA       0.095200
     30 H032       -46.9460   -34.2270    -0.8650 h1         1 WYA       0.095200
     31 H111       -41.6440   -30.9140    -0.1940 h4         1 WYA       0.220000
     32 H121       -43.5020   -32.2660    -1.2670 h4         1 WYA       0.263000
     33 H161       -42.2760   -36.4690    -4.7180 ha         1 WYA       0.140000
     34 H191       -41.2260   -32.6720    -7.1740 h4         1 WYA       0.034100
     35 H101       -41.6330   -30.6470     2.1320 hn         1 WYA       0.337500
@<TRIPOS>BOND
     1     1    12 ar  
     2     1    13 ar  
     3     1    24 1   
     4     2     4 ar  
     5     2    13 ar  
     6     2    20 ar  
     7     3    14 ar  
     8     3    21 ar  
     9     3    25 1   
    10     4    21 ar  
    11     4    22 ar  
    12     5    15 1   
    13     5    26 1   
    14     5    27 1   
    15     5    28 1   
    16     6     7 1   
    17     6    15 1   
    18     6    29 1   
    19     6    30 1   
    20     7    16 2   
    21     7    19 1   
    22     8     9 1   
    23     8    17 2   
    24     8    19 1   
    25     9    18 1   
    26     9    23 2   
    27    10    11 2   
    28    10    18 1   
    29    10    31 1   
    30    11    19 1   
    31    11    32 1   
    32    12    15 1   
    33    12    22 ar  
    34    13    33 1   
    35    14    20 ar  
    36    14    34 1   
    37    16    17 1   
    38    18    35 1   
@<TRIPOS>SUBSTRUCTURE
     1 WYA         1 TEMP              0 ****  ****    0 ROOT
