@<TRIPOS>MOLECULE
WYB
   25    25     1     0     0
SMALL
No Charge or Current Charge


@<TRIPOS>ATOM
      1 C21        145.4180   139.2030   160.7580 ca         1 WYB      -0.104000
      2 Cl13       144.3760   139.2300   164.6960 cl         1 WYB      -0.153000
      3 N01        148.2240   139.2510   158.6140 n1         1 WYB      -0.541000
      4 C02        147.5930   139.2920   159.5980 cg         1 WYB       0.373000
      5 C03        146.8170   139.3300   160.8090 ca         1 WYB      -0.040000
      6 C04        147.4550   139.4920   162.0520 ca         1 WYB      -0.104000
      7 C05        146.7050   139.5310   163.2410 ca         1 WYB       0.003000
      8 N06        147.4060   139.6590   164.4660 ns         1 WYB      -0.181000
      9 C07        147.2930   140.6130   165.4710 c          1 WYB       0.461600
     10 O08        147.9170   140.4870   166.5310 o          1 WYB      -0.613600
     11 C09        146.3420   141.8910   165.1450 c          1 WYB       0.671000
     12 O10        145.5550   142.2700   166.0120 o          1 WYB      -0.694500
     13 O11        146.5030   142.4890   164.0820 o          1 WYB      -0.694500
     14 C12        145.2960   139.3850   163.1900 ca         1 WYB       0.145000
     15 C14        144.6500   139.2400   161.9360 ca         1 WYB       0.003000
     16 N15        143.2470   139.0770   161.8140 ns         1 WYB      -0.181000
     17 C16        142.2110   139.8710   162.2950 c          1 WYB       0.461600
     18 O17        142.4120   140.9490   162.8670 o          1 WYB      -0.613600
     19 C18        140.7320   139.2610   162.0000 c          1 WYB       0.671000
     20 O19        140.6450   138.1940   161.3940 o          1 WYB      -0.694500
     21 O20        139.7460   139.8850   162.3910 o          1 WYB      -0.694500
     22 H2         144.9210   139.0750   159.7970 ha         1 WYB       0.118500
     23 H1         148.5380   139.5880   162.0980 ha         1 WYB       0.118500
     24 H3         148.0760   138.9220   164.6480 hn         1 WYB       0.141500
     25 H4         142.9550   138.2540   161.3000 hn         1 WYB       0.141500
@<TRIPOS>BOND
     1     1     5 ar  
     2     1    15 ar  
     3     1    22 1   
     4     2    14 1   
     5     3     4 3   
     6     4     5 1   
     7     5     6 ar  
     8     6     7 ar  
     9     6    23 1   
    10     7     8 1   
    11     7    14 ar  
    12     8     9 1   
    13     8    24 1   
    14     9    10 2   
    15     9    11 1   
    16    11    12 1   
    17    11    13 1   
    18    14    15 ar  
    19    15    16 1   
    20    16    17 1   
    21    16    25 1   
    22    17    18 2   
    23    17    19 1   
    24    19    20 1   
    25    19    21 1   
@<TRIPOS>SUBSTRUCTURE
     1 WYB         1 TEMP              0 ****  ****    0 ROOT
