@<TRIPOS>MOLECULE
WYB
   25    25     1     0     0
SMALL
abcg2


@<TRIPOS>ATOM
      1 C21        145.3690   139.2220   160.8340 ca         1 WYB      -0.104000
      2 CL13       144.3950   138.8790   164.6910 cl         1 WYB      -0.153000
      3 N01        148.1320   139.5290   158.7250 n1         1 WYB      -0.541000
      4 C02        147.5150   139.4730   159.6970 cg         1 WYB       0.373000
      5 C03        146.7510   139.4000   160.9010 ca         1 WYB      -0.040000
      6 C04        147.3850   139.5370   162.1350 ca         1 WYB      -0.104000
      7 C05        146.6480   139.4490   163.3050 ca         1 WYB       0.003000
      8 N06        147.3050   139.5740   164.5520 ns         1 WYB      -0.181000
      9 C07        147.2420   140.6650   165.3640 c          1 WYB       0.461600
     10 O08        147.7960   140.6790   166.4610 o          1 WYB      -0.613600
     11 C09        146.5010   141.9100   164.8220 c          1 WYB       0.671000
     12 O10        145.4360   142.2130   165.3970 o          1 WYB      -0.694500
     13 O11        147.0910   142.5020   163.8910 o          1 WYB      -0.694500
     14 C12        145.2690   139.2030   163.2380 ca         1 WYB       0.145000
     15 C14        144.6160   139.1330   161.9970 ca         1 WYB       0.003000
     16 N15        143.2300   138.9330   161.9000 ns         1 WYB      -0.181000
     17 C16        142.2810   139.7870   162.3750 c          1 WYB       0.461600
     18 O17        142.5270   140.7960   163.0150 o          1 WYB      -0.613600
     19 C18        140.8280   139.3210   161.9940 c          1 WYB       0.671000
     20 O19        140.7690   138.3830   161.1640 o          1 WYB      -0.694500
     21 O20        139.8990   139.9340   162.5490 o          1 WYB      -0.694500
     22 H2         144.8700   139.1540   159.8770 ha         1 WYB       0.118500
     23 H1         148.4490   139.7170   162.1950 ha         1 WYB       0.118500
     24 H3         147.8580   138.7940   164.8850 hn         1 WYB       0.141500
     25 H4         142.8690   138.2520   161.2410 hn         1 WYB       0.141500
@<TRIPOS>BOND
     1     1     5 ar  
     2     1    15 ar  
     3     1    22 1   
     4     2    14 1   
     5     3     4 3   
     6     4     5 1   
     7     5     6 ar  
     8     6     7 ar  
     9     6    23 1   
    10     7     8 1   
    11     7    14 ar  
    12     8     9 1   
    13     8    24 1   
    14     9    10 2   
    15     9    11 1   
    16    11    12 1   
    17    11    13 1   
    18    14    15 ar  
    19    15    16 1   
    20    16    17 1   
    21    16    25 1   
    22    17    18 2   
    23    17    19 1   
    24    19    20 1   
    25    19    21 1   
@<TRIPOS>SUBSTRUCTURE
     1 WYB         1 TEMP              0 ****  ****    0 ROOT
