@<TRIPOS>MOLECULE
WYC
   41    42     1     0     0
SMALL
No Charge or Current Charge


@<TRIPOS>ATOM
      1 C10         59.5280    34.7180    -2.9640 ca         1 WYC       0.000000
      2 C12         59.4750    33.0150    -1.0310 c          1 WYC       0.601100
      3 C14         59.7860    32.9990     0.4740 c3         1 WYC      -0.047400
      4 C16         62.1170    31.3630     0.1560 c3         1 WYC       0.091900
      5 C17         61.4140    30.2300     0.8930 ca         1 WYC      -0.080300
      6 C18         60.4780    29.4180     0.2270 ca         1 WYC      -0.027500
      7 C19         59.8120    28.3800     0.9110 ca         1 WYC      -0.207300
      8 C2          60.8220    36.8600    -2.3310 c          1 WYC       0.723600
      9 C20         60.1130    28.1490     2.2700 ca         1 WYC      -0.023000
     10 C21         61.0580    28.9480     2.9470 ca         1 WYC      -0.207300
     11 C22         61.6980    29.9950     2.2510 ca         1 WYC      -0.027500
     12 C23         61.3640    28.6970     4.4280 c3         1 WYC       0.358800
     13 C27         58.7920    27.4970     0.1830 c3         1 WYC       0.358800
     14 C4          60.0670    35.9880    -3.3190 ca         1 WYC      -0.191600
     15 C5          59.9070    36.4570    -4.6450 ca         1 WYC      -0.056000
     16 C6          59.2190    35.6960    -5.6000 ca         1 WYC       0.071000
     17 C8          58.6770    34.4540    -5.2480 ca         1 WYC      -0.099000
     18 C9          58.8290    33.9690    -3.9390 ca         1 WYC      -0.169000
     19 F24         60.4990    29.3610     5.2260 f          1 WYC      -0.112833
     20 F25         61.2760    27.3870     4.7550 f          1 WYC      -0.112833
     21 F26         62.6090    29.0960     4.7750 f          1 WYC      -0.112833
     22 F28         59.3820    26.4030    -0.3470 f          1 WYC      -0.112833
     23 F29         57.8120    27.0590     1.0060 f          1 WYC      -0.112833
     24 F30         58.1790    28.1460    -0.8330 f          1 WYC      -0.112833
     25 N11         59.7000    34.2420    -1.6340 ns         1 WYC      -0.155000
     26 O1          61.7010    37.5900    -2.7650 o          1 WYC      -0.701000
     27 O13         59.0870    32.0110    -1.6190 o          1 WYC      -0.638100
     28 O3          60.5090    36.8200    -1.1500 o          1 WYC      -0.701000
     29 S15         61.6140    33.0140     0.8350 ss         1 WYC      -0.372000
     30 Cl7         59.0280    36.3040    -7.2390 cl         1 WYC      -0.256000
     31 H1          59.3210    33.8830     0.9280 h1         1 WYC       0.085200
     32 H2          59.3260    32.1060     0.9140 h1         1 WYC       0.085200
     33 H3          63.2040    31.2490     0.2660 h1         1 WYC       0.101700
     34 H4          61.8880    31.3230    -0.9170 h1         1 WYC       0.101700
     35 H5          60.2660    29.6010    -0.8250 ha         1 WYC       0.143500
     36 H6          59.6090    27.3440     2.8040 ha         1 WYC       0.141000
     37 H7          62.4170    30.6340     2.7600 ha         1 WYC       0.143500
     38 H8          60.3130    37.4220    -4.9380 ha         1 WYC       0.147000
     39 H9          58.1380    33.8680    -5.9880 ha         1 WYC       0.106000
     40 H10         58.3860    33.0070    -3.7010 ha         1 WYC       0.137000
     41 H11         60.0540    34.9520    -1.0010 hn         1 WYC       0.242000
@<TRIPOS>BOND
     1     1    14 ar  
     2     1    18 ar  
     3     1    25 1   
     4     2     3 1   
     5     2    25 1   
     6     2    27 2   
     7     3    29 1   
     8     3    31 1   
     9     3    32 1   
    10     4     5 1   
    11     4    29 1   
    12     4    33 1   
    13     4    34 1   
    14     5     6 ar  
    15     5    11 ar  
    16     6     7 ar  
    17     6    35 1   
    18     7     9 ar  
    19     7    13 1   
    20     8    14 1   
    21     8    26 1   
    22     8    28 1   
    23     9    10 ar  
    24     9    36 1   
    25    10    11 ar  
    26    10    12 1   
    27    11    37 1   
    28    12    19 1   
    29    12    20 1   
    30    12    21 1   
    31    13    22 1   
    32    13    23 1   
    33    13    24 1   
    34    14    15 ar  
    35    15    16 ar  
    36    15    38 1   
    37    16    17 ar  
    38    16    30 1   
    39    17    18 ar  
    40    17    39 1   
    41    18    40 1   
    42    25    41 1   
@<TRIPOS>SUBSTRUCTURE
     1 WYC         1 TEMP              0 ****  ****    0 ROOT
