@<TRIPOS>MOLECULE
WYC
   41    42     1     0     0
SMALL
abcg2


@<TRIPOS>ATOM
      1 C10         59.3920    34.4070    -2.7660 ca         1 WYC       0.000000
      2 C12         58.5890    33.4190    -0.6490 c          1 WYC       0.601100
      3 C14         58.9940    33.0970     0.7850 c3         1 WYC      -0.047400
      4 C16         61.6650    32.2190     0.6200 c3         1 WYC       0.091900
      5 C17         61.2600    30.8460     1.0420 ca         1 WYC      -0.080300
      6 C18         60.5340    30.0280     0.1820 ca         1 WYC      -0.027500
      7 C19         60.1310    28.7620     0.5910 ca         1 WYC      -0.207300
      8 C2          61.7990    35.3660    -2.6330 c          1 WYC       0.723600
      9 C20         60.4530    28.2920     1.8550 ca         1 WYC      -0.023000
     10 C21         61.1800    29.1080     2.7110 ca         1 WYC      -0.207300
     11 C22         61.5760    30.3760     2.3100 ca         1 WYC      -0.027500
     12 C23         61.5550    28.6480     4.0890 c3         1 WYC       0.358800
     13 C27         59.4040    27.8880    -0.3830 c3         1 WYC       0.358800
     14 C4          60.4980    35.0410    -3.3700 ca         1 WYC      -0.191600
     15 C5          60.4180    35.4000    -4.7100 ca         1 WYC      -0.056000
     16 C6          59.2820    35.1420    -5.4520 ca         1 WYC       0.071000
     17 C8          58.1930    34.5190    -4.8680 ca         1 WYC      -0.099000
     18 C9          58.2490    34.1540    -3.5340 ca         1 WYC      -0.169000
     19 F24         60.9390    29.3680     5.0360 f          1 WYC      -0.112833
     20 F25         61.2480    27.3660     4.3030 f          1 WYC      -0.112833
     21 F26         62.8700    28.7780     4.3070 f          1 WYC      -0.112833
     22 F28         60.2450    27.3920    -1.3030 f          1 WYC      -0.112833
     23 F29         58.8100    26.8520     0.2140 f          1 WYC      -0.112833
     24 F30         58.4540    28.5490    -1.0520 f          1 WYC      -0.112833
     25 N11         59.4980    34.0480    -1.4210 ns         1 WYC      -0.155000
     26 O1          62.6950    35.9110    -3.2880 o          1 WYC      -0.701000
     27 O13         57.4710    33.0810    -1.0040 o          1 WYC      -0.638100
     28 O3          61.8460    35.0720    -1.4110 o          1 WYC      -0.701000
     29 S15         60.6350    33.5220     1.3770 ss         1 WYC      -0.372000
     30 CL7         59.2180    35.6050    -7.1240 cl         1 WYC      -0.256000
     31 H1          58.3070    33.6300     1.4520 h1         1 WYC       0.085200
     32 H2          58.7950    32.0370     0.9470 h1         1 WYC       0.085200
     33 H3          62.6720    32.4520     0.9730 h1         1 WYC       0.101700
     34 H4          61.6670    32.3220    -0.4650 h1         1 WYC       0.101700
     35 H5          60.2930    30.3930    -0.8090 ha         1 WYC       0.143500
     36 H6          60.1310    27.3100     2.1710 ha         1 WYC       0.141000
     37 H7          62.1380    31.0160     2.9820 ha         1 WYC       0.143500
     38 H8          61.2710    35.8860    -5.1650 ha         1 WYC       0.147000
     39 H9          57.3000    34.3110    -5.4410 ha         1 WYC       0.106000
     40 H10         57.3910    33.6750    -3.0940 ha         1 WYC       0.137000
     41 H11         60.4030    34.3680    -1.0290 hn         1 WYC       0.242000
@<TRIPOS>BOND
     1     1    14 ar  
     2     1    18 ar  
     3     1    25 1   
     4     2     3 1   
     5     2    25 1   
     6     2    27 2   
     7     3    29 1   
     8     3    31 1   
     9     3    32 1   
    10     4     5 1   
    11     4    29 1   
    12     4    33 1   
    13     4    34 1   
    14     5     6 ar  
    15     5    11 ar  
    16     6     7 ar  
    17     6    35 1   
    18     7     9 ar  
    19     7    13 1   
    20     8    14 1   
    21     8    26 1   
    22     8    28 1   
    23     9    10 ar  
    24     9    36 1   
    25    10    11 ar  
    26    10    12 1   
    27    11    37 1   
    28    12    19 1   
    29    12    20 1   
    30    12    21 1   
    31    13    22 1   
    32    13    23 1   
    33    13    24 1   
    34    14    15 ar  
    35    15    16 ar  
    36    15    38 1   
    37    16    17 ar  
    38    16    30 1   
    39    17    18 ar  
    40    17    39 1   
    41    18    40 1   
    42    25    41 1   
@<TRIPOS>SUBSTRUCTURE
     1 WYC         1 TEMP              0 ****  ****    0 ROOT
