@<TRIPOS>MOLECULE
WYD
   89    92     1     0     0
SMALL
abcg2


@<TRIPOS>ATOM
      1 C4           3.9300     0.0860     0.2140 c6         1 WYD       0.149300
      2 C5           4.4410    -1.2080    -0.4380 c6         1 WYD       0.156300
      3 C6           3.4490    -1.8240    -1.4040 c3         1 WYD       0.166600
      4 C8           9.3070     2.5180     1.9320 c3         1 WYD      -0.181100
      5 N2           7.3900     1.2500     1.1980 ns         1 WYD      -0.509900
      6 C3           5.0240     0.6690     1.1020 c6         1 WYD       0.163300
      7 C1           6.6860    -0.5300    -0.3370 c6         1 WYD       0.386300
      8 C2           6.3370     0.8020     0.3230 c6         1 WYD       0.036700
      9 CAF         -9.2740    -1.3490    -1.6560 ca         1 WYD      -0.077000
     10 CAH         -0.8700    -0.0940     0.8830 c6         1 WYD       0.190300
     11 CAI          9.7950    -1.2700    -2.0820 c3         1 WYD      -0.082400
     12 CAJ         -2.3960    -1.9080     1.2250 c3         1 WYD       0.151300
     13 CAK          1.5710     0.2060     0.5520 c6         1 WYD       0.367300
     14 CAN        -10.1000     3.3370    -3.0050 c3         1 WYD       0.235900
     15 CAO         -7.9650    -1.2170     0.8020 ca         1 WYD      -0.127300
     16 CAP         -8.2490    -2.4510     0.2220 ca         1 WYD      -0.075000
     17 CAQ          0.5080    -0.5600     1.3430 c6         1 WYD       0.119300
     18 CAS         -3.8290    -2.0010     1.6180 cc         1 WYD       0.192300
     19 CAU         10.4510    -2.5170    -2.6580 c3         1 WYD      -0.089100
     20 CAX          0.1940     2.0520     0.2070 c6         1 WYD       0.146300
     21 CAY         -0.9760     1.4270     0.9710 c6         1 WYD       0.141300
     22 CBA         -8.8990    -2.5120    -1.0010 ca         1 WYD      -0.113000
     23 CBB         -8.3370    -0.0530     0.1470 ca         1 WYD      -0.075000
     24 CBD         -4.8070    -1.0410     1.5620 cd         1 WYD      -0.185000
     25 CBG         -9.7000     2.1140    -2.3120 c1         1 WYD      -0.111100
     26 CBI         -8.9970    -0.1060    -1.0850 ca         1 WYD       0.032000
     27 NAA        -11.4690     3.7070    -2.6710 n8         1 WYD      -0.986200
     28 NAB         -5.6340    -2.9150     2.3530 nd         1 WYD      -0.210800
     29 NAC         -5.9000    -1.6620     2.0330 na         1 WYD       0.124800
     30 NAE         -4.3840    -3.1270     2.1130 nc         1 WYD      -0.352000
     31 O1           7.8090    -0.3670    -1.1070 os         1 WYD      -0.435000
     32 O3           4.5940     1.9080     1.5920 oh         1 WYD      -0.682000
     33 O4           2.8080    -0.1810     1.0320 os         1 WYD      -0.444000
     34 O5           5.6190    -0.9250    -1.1590 os         1 WYD      -0.463000
     35 O6           4.0120    -3.0010    -1.9300 oh         1 WYD      -0.708000
     36 OBK          0.6110    -1.9420     1.1090 oh         1 WYD      -0.726000
     37 OBP         -1.9150    -0.6490     1.6370 os         1 WYD      -0.446000
     38 OBQ         -0.9740     1.8030     2.3280 oh         1 WYD      -0.686000
     39 OBR          1.4250     1.5840     0.7210 os         1 WYD      -0.435000
     40 H1           3.6820     0.8120    -0.5710 h1         1 WYD       0.085700
     41 H2           4.6500    -1.9400     0.3600 h1         1 WYD       0.050700
     42 H3           2.5190    -2.0380    -0.8670 h1         1 WYD       0.033700
     43 H4           3.2110    -1.0970    -2.1930 h1         1 WYD       0.033700
     44 H5           9.3370     1.7780     2.7290 hc         1 WYD       0.060033
     45 H6          10.2740     2.5250     1.4290 hc         1 WYD       0.060033
     46 H7           9.1710     3.5020     2.3810 hc         1 WYD       0.060033
     47 H8           7.5990     0.6800     2.0030 hn         1 WYD       0.304500
     48 H9           5.1880    -0.0450     1.9270 h1         1 WYD       0.029700
     49 H10          6.8480    -1.3030     0.4410 h2         1 WYD       0.012700
     50 H11          6.2120     1.5520    -0.4610 h1         1 WYD       0.123700
     51 H12         -9.7850    -1.4000    -2.6080 ha         1 WYD       0.122000
     52 H13         -0.9820    -0.3660    -0.1790 h1         1 WYD       0.040700
     53 H14         10.3970    -0.8740    -1.2600 hc         1 WYD       0.051700
     54 H15          9.7490    -0.4910    -2.8470 hc         1 WYD       0.051700
     55 H16         -1.8430    -2.7350     1.6790 h1         1 WYD       0.053200
     56 H17         -2.2990    -2.0220     0.1370 h1         1 WYD       0.053200
     57 H18          1.4660    -0.0430    -0.5210 h2         1 WYD       0.019700
     58 H19         -9.4350     4.1450    -2.6890 h1         1 WYD       0.046200
     59 H20         -9.9190     3.1970    -4.0790 h1         1 WYD       0.046200
     60 H21         -7.9650    -3.3670     0.7250 ha         1 WYD       0.132000
     61 H22          0.6330    -0.3240     2.4090 h1         1 WYD       0.088700
     62 H25         11.4600    -2.3030    -3.0090 hc         1 WYD       0.034033
     63 H26         10.5230    -3.3120    -1.9140 hc         1 WYD       0.034033
     64 H27          9.8830    -2.9060    -3.5050 hc         1 WYD       0.034033
     65 H30          0.0890     1.7610    -0.8520 h1         1 WYD       0.047700
     66 H31         -1.9080     1.7280     0.4760 h1         1 WYD       0.042700
     67 H32         -9.1170    -3.4730    -1.4480 ha         1 WYD       0.121000
     68 H33         -8.1190     0.9100     0.5910 ha         1 WYD       0.118000
     69 H34         -4.8070    -0.0120     1.2430 h4         1 WYD       0.168000
     70 H37        -11.6740     4.5980    -3.1050 hn         1 WYD       0.398500
     71 H38        -12.1060     3.0420    -3.0900 hn         1 WYD       0.398500
     72 H40          5.2520     2.2220     2.2210 ho         1 WYD       0.507000
     73 H41          3.3260    -3.4630    -2.4200 ho         1 WYD       0.504000
     74 H42          1.4050    -2.2670     1.5460 ho         1 WYD       0.521000
     75 H44         -1.4910     2.6060     2.4270 ho         1 WYD       0.501000
     76 CAR          0.1850     3.5630     0.2820 c3         1 WYD       0.171600
     77 C7           8.2180     2.2790     0.9170 c          1 WYD       0.608100
     78 CAV          8.3960    -1.5680    -1.5830 c3         1 WYD       0.162600
     79 OBL          1.1420     4.0690    -0.6160 oh         1 WYD      -0.705000
     80 CBE         -7.2520    -1.1460     2.1270 c3         1 WYD       0.126900
     81 O7           8.0910     2.9890    -0.0680 o          1 WYD      -0.583100
     82 CAZ         -9.3770     1.0980    -1.7500 cg         1 WYD      -0.122000
     83 H23         -0.8270     3.9070     0.0310 h1         1 WYD       0.028200
     84 H24          0.3890     3.8800     1.3120 h1         1 WYD       0.028200
     85 H28          7.7940    -1.9990    -2.3910 h1         1 WYD       0.033700
     86 H29          8.4350    -2.3130    -0.7760 h1         1 WYD       0.033700
     87 H35         -7.2000    -0.1200     2.4880 h1         1 WYD       0.079200
     88 H36         -7.7660    -1.7390     2.8830 h1         1 WYD       0.079200
     89 H43          1.1820     5.0230    -0.5000 ho         1 WYD       0.507000
@<TRIPOS>BOND
     1     1     2 1   
     2     1     6 1   
     3     1    33 1   
     4     1    40 1   
     5     2     3 1   
     6     2    34 1   
     7     2    41 1   
     8     3    35 1   
     9     3    42 1   
    10     3    43 1   
    11     4    44 1   
    12     4    45 1   
    13     4    46 1   
    14     4    77 1   
    15     5     8 1   
    16     5    47 1   
    17     5    77 1   
    18     6     8 1   
    19     6    32 1   
    20     6    48 1   
    21     7     8 1   
    22     7    31 1   
    23     7    34 1   
    24     7    49 1   
    25     8    50 1   
    26     9    22 ar  
    27     9    26 ar  
    28     9    51 1   
    29    10    17 1   
    30    10    21 1   
    31    10    37 1   
    32    10    52 1   
    33    11    19 1   
    34    11    53 1   
    35    11    54 1   
    36    11    78 1   
    37    12    18 1   
    38    12    37 1   
    39    12    55 1   
    40    12    56 1   
    41    13    17 1   
    42    13    33 1   
    43    13    39 1   
    44    13    57 1   
    45    14    25 1   
    46    14    27 1   
    47    14    58 1   
    48    14    59 1   
    49    15    16 ar  
    50    15    23 ar  
    51    15    80 1   
    52    16    22 ar  
    53    16    60 1   
    54    17    36 1   
    55    17    61 1   
    56    18    24 2   
    57    18    30 1   
    58    19    62 1   
    59    19    63 1   
    60    19    64 1   
    61    20    21 1   
    62    20    39 1   
    63    20    65 1   
    64    20    76 1   
    65    21    38 1   
    66    21    66 1   
    67    22    67 1   
    68    23    26 ar  
    69    23    68 1   
    70    24    29 1   
    71    24    69 1   
    72    25    82 3   
    73    26    82 1   
    74    27    70 1   
    75    27    71 1   
    76    28    29 1   
    77    28    30 2   
    78    29    80 1   
    79    31    78 1   
    80    32    72 1   
    81    35    73 1   
    82    36    74 1   
    83    38    75 1   
    84    76    79 1   
    85    76    83 1   
    86    76    84 1   
    87    77    81 2   
    88    78    85 1   
    89    78    86 1   
    90    79    89 1   
    91    80    87 1   
    92    80    88 1   
@<TRIPOS>SUBSTRUCTURE
     1 WYD         1 TEMP              0 ****  ****    0 ROOT
