@<TRIPOS>MOLECULE
WYD
   89    92     1     0     0
SMALL
No Charge or Current Charge


@<TRIPOS>ATOM
      1 C4           4.1010     0.0310     0.4430 c6         1 WYD       0.149300
      2 C5           4.6050    -1.2220    -0.3500 c6         1 WYD       0.156300
      3 C6           3.6250    -1.7330    -1.4580 c3         1 WYD       0.166600
      4 C8           9.7060     2.0660     2.5460 c3         1 WYD      -0.181100
      5 N2           7.6420     1.0720     1.6950 ns         1 WYD      -0.509900
      6 C3           5.2140     0.4740     1.4500 c6         1 WYD       0.163300
      7 C1           6.9300    -0.6030    -0.0620 c6         1 WYD       0.386300
      8 C2           6.5750     0.6920     0.7280 c6         1 WYD       0.036700
      9 CAF         -9.2040    -1.1200    -1.8400 ca         1 WYD      -0.077000
     10 CAH         -0.9270     0.0260     0.4870 c6         1 WYD       0.190300
     11 CAI          9.9820    -1.2040    -2.1450 c3         1 WYD      -0.082400
     12 CAJ         -2.5080    -1.6590     1.4270 c3         1 WYD       0.151300
     13 CAK          1.6380     0.1280     0.4410 c6         1 WYD       0.367300
     14 CAN        -11.3820     3.3010    -2.4790 c3         1 WYD       0.235900
     15 CAO         -8.0700    -1.0570     0.7430 ca         1 WYD      -0.127300
     16 CAP         -7.9300    -2.2020    -0.0690 ca         1 WYD      -0.075000
     17 CAQ          0.3960    -0.3980     1.2310 c6         1 WYD       0.119300
     18 CAS         -3.9450    -1.7260     1.8890 cc         1 WYD       0.192300
     19 CAU         10.6510    -2.3780    -2.8860 c3         1 WYD      -0.089100
     20 CAX          0.4180     1.9620    -0.5140 c6         1 WYD       0.146300
     21 CAY         -0.9200     1.5600     0.1870 c6         1 WYD       0.141300
     22 CBA         -8.4930    -2.2310    -1.3560 ca         1 WYD      -0.113000
     23 CBB         -8.7890     0.0520     0.2540 ca         1 WYD      -0.075000
     24 CBD         -4.9990    -0.9810     1.4580 cd         1 WYD      -0.185000
     25 CBG        -10.6880     2.1250    -1.9460 c1         1 WYD      -0.111100
     26 CBI         -9.3540     0.0240    -1.0350 ca         1 WYD       0.032000
     27 NAA        -12.8120     3.2340    -2.1270 n8         1 WYD      -0.986200
     28 NAB         -5.6380    -2.4600     3.0380 nd         1 WYD      -0.210800
     29 NAC         -6.0570    -1.4600     2.1970 na         1 WYD       0.124800
     30 NAE         -4.3520    -2.6170     2.8440 nc         1 WYD      -0.352000
     31 O1           8.1470    -0.4300    -0.8030 os         1 WYD      -0.435000
     32 O3           4.8400     1.6660     2.1690 oh         1 WYD      -0.682000
     33 O4           2.8510    -0.2060     1.1500 os         1 WYD      -0.444000
     34 O5           5.8700    -0.9090    -0.9850 os         1 WYD      -0.463000
     35 O6           4.1700    -2.8050    -2.2540 oh         1 WYD      -0.708000
     36 OBK          0.4980    -1.8310     1.4490 oh         1 WYD      -0.726000
     37 OBP         -2.1390    -0.2750     1.2360 os         1 WYD      -0.446000
     38 OBQ         -1.1500     2.2920     1.4100 oh         1 WYD      -0.686000
     39 OBR          1.5520     1.5530     0.2880 os         1 WYD      -0.435000
     40 H1           3.9570     0.8560    -0.2700 h1         1 WYD       0.085700
     41 H2           4.7660    -2.0490     0.3570 h1         1 WYD       0.050700
     42 H3           2.7070    -2.0810    -0.9670 h1         1 WYD       0.033700
     43 H4           3.3580    -0.8830    -2.1010 h1         1 WYD       0.033700
     44 H5          10.1280     1.0700     2.7200 hc         1 WYD       0.060033
     45 H6          10.4860     2.8030     2.3230 hc         1 WYD       0.060033
     46 H7           9.2090     2.2780     3.5000 hc         1 WYD       0.060033
     47 H8           7.7250     0.5400     2.5550 hn         1 WYD       0.304500
     48 H9           5.3510    -0.3460     2.1710 h1         1 WYD       0.029700
     49 H10          7.0550    -1.4380     0.6440 h2         1 WYD       0.012700
     50 H11          6.4540     1.5010    -0.0070 h1         1 WYD       0.123700
     51 H12         -9.6380    -1.1490    -2.8370 ha         1 WYD       0.122000
     52 H13         -0.9750    -0.5070    -0.4740 h1         1 WYD       0.040700
     53 H14         10.6780    -0.8120    -1.3930 hc         1 WYD       0.051700
     54 H15          9.7880    -0.3940    -2.8590 hc         1 WYD       0.051700
     55 H16         -1.8730    -2.1360     2.1830 h1         1 WYD       0.053200
     56 H17         -2.4150    -2.2220     0.4890 h1         1 WYD       0.053200
     57 H18          1.6470    -0.3370    -0.5530 h2         1 WYD       0.019700
     58 H19        -10.9420     4.2150    -2.0550 h1         1 WYD       0.046200
     59 H20        -11.2730     3.3270    -3.5730 h1         1 WYD       0.046200
     60 H21         -7.3840    -3.0710     0.2950 ha         1 WYD       0.132000
     61 H22          0.4000     0.1190     2.2030 h1         1 WYD       0.088700
     62 H25         11.5840    -2.0500    -3.3600 hc         1 WYD       0.034033
     63 H26         10.8870    -3.1920    -2.1900 hc         1 WYD       0.034033
     64 H27          9.9890    -2.7710    -3.6680 hc         1 WYD       0.034033
     65 H30          0.4730     1.4480    -1.4850 h1         1 WYD       0.047700
     66 H31         -1.7420     1.7650    -0.5150 h1         1 WYD       0.042700
     67 H32         -8.3800    -3.1160    -1.9780 ha         1 WYD       0.121000
     68 H33         -8.9080     0.9390     0.8730 ha         1 WYD       0.118000
     69 H34         -5.0730    -0.1930     0.7210 h4         1 WYD       0.168000
     70 H37        -13.3000     4.0140    -2.5840 hn         1 WYD       0.398500
     71 H38        -13.2160     2.4010    -2.5710 hn         1 WYD       0.398500
     72 H40          5.6600     1.9980     2.6010 ho         1 WYD       0.507000
     73 H41          3.5180    -2.9980    -2.9670 ho         1 WYD       0.504000
     74 H42          1.3830    -1.9840     1.8580 ho         1 WYD       0.521000
     75 H44         -1.8340     1.7730     1.8940 ho         1 WYD       0.501000
     76 CAR          0.5210     3.4970    -0.7950 c3         1 WYD       0.171600
     77 C7           8.6550     1.9730     1.4490 c          1 WYD       0.608100
     78 CAV          8.6620    -1.6000    -1.4560 c3         1 WYD       0.162600
     79 OBL          1.7230     3.8620    -1.5000 oh         1 WYD      -0.705000
     80 CBE         -7.4600    -1.0180     2.1450 c3         1 WYD       0.126900
     81 O7           8.6990     2.6560     0.4370 o          1 WYD      -0.583100
     82 CAZ        -10.0810     1.1590    -1.5270 cg         1 WYD      -0.122000
     83 H23         -0.3600     3.7970    -1.3780 h1         1 WYD       0.028200
     84 H24          0.4740     4.0310     0.1640 h1         1 WYD       0.028200
     85 H28          7.9540    -1.9730    -2.2080 h1         1 WYD       0.033700
     86 H29          8.8530    -2.3990    -0.7280 h1         1 WYD       0.033700
     87 H35         -7.5050     0.0030     2.5430 h1         1 WYD       0.079200
     88 H36         -8.0550    -1.6560     2.8100 h1         1 WYD       0.079200
     89 H43          1.7400     4.8460    -1.5490 ho         1 WYD       0.507000
@<TRIPOS>BOND
     1     1     2 1   
     2     1     6 1   
     3     1    33 1   
     4     1    40 1   
     5     2     3 1   
     6     2    34 1   
     7     2    41 1   
     8     3    35 1   
     9     3    42 1   
    10     3    43 1   
    11     4    44 1   
    12     4    45 1   
    13     4    46 1   
    14     4    77 1   
    15     5     8 1   
    16     5    47 1   
    17     5    77 1   
    18     6     8 1   
    19     6    32 1   
    20     6    48 1   
    21     7     8 1   
    22     7    31 1   
    23     7    34 1   
    24     7    49 1   
    25     8    50 1   
    26     9    22 ar  
    27     9    26 ar  
    28     9    51 1   
    29    10    17 1   
    30    10    21 1   
    31    10    37 1   
    32    10    52 1   
    33    11    19 1   
    34    11    53 1   
    35    11    54 1   
    36    11    78 1   
    37    12    18 1   
    38    12    37 1   
    39    12    55 1   
    40    12    56 1   
    41    13    17 1   
    42    13    33 1   
    43    13    39 1   
    44    13    57 1   
    45    14    25 1   
    46    14    27 1   
    47    14    58 1   
    48    14    59 1   
    49    15    16 ar  
    50    15    23 ar  
    51    15    80 1   
    52    16    22 ar  
    53    16    60 1   
    54    17    36 1   
    55    17    61 1   
    56    18    24 2   
    57    18    30 1   
    58    19    62 1   
    59    19    63 1   
    60    19    64 1   
    61    20    21 1   
    62    20    39 1   
    63    20    65 1   
    64    20    76 1   
    65    21    38 1   
    66    21    66 1   
    67    22    67 1   
    68    23    26 ar  
    69    23    68 1   
    70    24    29 1   
    71    24    69 1   
    72    25    82 3   
    73    26    82 1   
    74    27    70 1   
    75    27    71 1   
    76    28    29 1   
    77    28    30 2   
    78    29    80 1   
    79    31    78 1   
    80    32    72 1   
    81    35    73 1   
    82    36    74 1   
    83    38    75 1   
    84    76    79 1   
    85    76    83 1   
    86    76    84 1   
    87    77    81 2   
    88    78    85 1   
    89    78    86 1   
    90    79    89 1   
    91    80    87 1   
    92    80    88 1   
@<TRIPOS>SUBSTRUCTURE
     1 WYD         1 TEMP              0 ****  ****    0 ROOT
