@<TRIPOS>MOLECULE
WYE
   52    56     1     0     0
SMALL
No Charge or Current Charge


@<TRIPOS>ATOM
      1 C1          48.7440    14.7450    30.6940 ca         1 WYE      -0.256000
      2 N1          48.7180    13.0060    29.0060 nb         1 WYE      -0.699000
      3 C2          40.2420    11.7020    30.6590 ca         1 WYE      -0.218000
      4 N2          46.6980    11.5690    29.0920 na         1 WYE      -0.189400
      5 O2          42.6670    12.0670    30.9100 os         1 WYE      -0.220200
      6 C3          38.8640    12.2780    32.5970 ca         1 WYE      -0.298000
      7 N3          46.8860    15.0270    32.2580 nh         1 WYE      -0.804400
      8 C4          49.3110    14.0630    29.6080 ca         1 WYE       0.375900
      9 N4          46.6690    17.8470    33.2010 n3         1 WYE      -0.713600
     10 C5          45.5480    11.4690    29.8940 cc         1 WYE      -0.093100
     11 C6          46.9210    13.2110    30.5780 ca         1 WYE      -0.138800
     12 C7          41.2370    12.5690    32.6700 ca         1 WYE      -0.401600
     13 C8          45.6850    12.4820    30.8280 cd         1 WYE      -0.134200
     14 C9          47.5090    14.3240    31.2040 ca         1 WYE       0.377000
     15 C10         41.3680    12.1000    31.3830 ca         1 WYE       0.223100
     16 C11         38.9830    11.7950    31.2780 ca         1 WYE       0.233100
     17 C12         40.0090    12.6720    33.3040 ca         1 WYE       0.291100
     18 C13         47.5310    12.6040    29.5040 ca         1 WYE       0.379500
     19 C14         42.5660    12.8960    33.1400 c          1 WYE       0.599900
     20 C15         43.4100    12.5500    31.9800 cc         1 WYE      -0.098100
     21 C16         44.7660    12.7110    31.9440 cf         1 WYE      -0.033000
     22 C17         45.6670    15.8520    31.9810 c6         1 WYE       0.200800
     23 C18         47.6680    15.5100    33.4410 c6         1 WYE       0.200800
     24 C19         45.9760    17.3830    31.9610 c6         1 WYE       0.128300
     25 C20         47.9190    17.0550    33.4130 c6         1 WYE       0.128300
     26 C21         47.0550    10.7130    27.9500 c3         1 WYE       0.061900
     27 C22         46.9100    19.3060    33.2090 c3         1 WYE       0.150100
     28 H1          49.2600    15.6010    31.1130 ha         1 WYE       0.122000
     29 H2          40.3390    11.3310    29.6440 ha         1 WYE       0.150000
     30 H3          37.8920    12.3500    33.0760 ha         1 WYE       0.136000
     31 HO3         37.0970    11.5480    31.1790 ho         1 WYE       0.474000
     32 H4          50.2680    14.3800    29.1940 h4         1 WYE       0.018100
     33 HO4         40.8400    13.3500    34.8550 ho         1 WYE       0.503000
     34 H5          44.7820    10.7110    29.7610 h4         1 WYE       0.233000
     35 H16         45.2010    13.1380    32.8490 ha         1 WYE       0.216000
     36 H17         45.2190    15.5680    31.0170 h1         1 WYE       0.067200
     37 H17A        44.9050    15.6560    32.7490 h1         1 WYE       0.067200
     38 H18         47.1220    15.2620    34.3630 h1         1 WYE       0.067200
     39 H18A        48.6350    14.9900    33.5070 h1         1 WYE       0.067200
     40 H19         45.0300    17.9270    31.8270 h1         1 WYE       0.039950
     41 H19A        46.5980    17.5990    31.0790 h1         1 WYE       0.039950
     42 H20         48.6400    17.2770    32.6130 h1         1 WYE       0.039950
     43 H20A        48.3970    17.3460    34.3600 h1         1 WYE       0.039950
     44 H21         47.1670    11.3280    27.0480 h1         1 WYE       0.059700
     45 H21A        48.0020    10.1980    28.1560 h1         1 WYE       0.059700
     46 H21B        46.2690     9.9670    27.7810 h1         1 WYE       0.059700
     47 H22         47.3760    19.6170    34.1530 h1         1 WYE       0.033033
     48 H22A        47.5750    19.5980    32.3840 h1         1 WYE       0.033033
     49 H22B        45.9660    19.8560    33.1000 h1         1 WYE       0.033033
     50 O1          42.8620    13.3490    34.2370 o          1 WYE      -0.562100
     51 O3          37.8720    11.4140    30.5950 oh         1 WYE      -0.527100
     52 O4          39.9220    13.1400    34.5720 oh         1 WYE      -0.525100
@<TRIPOS>BOND
     1     1     8 ar  
     2     1    14 ar  
     3     1    28 1   
     4     2     8 ar  
     5     2    18 ar  
     6     3    15 ar  
     7     3    16 ar  
     8     3    29 1   
     9     4    10 1   
    10     4    18 1   
    11     4    26 1   
    12     5    15 1   
    13     5    20 1   
    14     6    16 ar  
    15     6    17 ar  
    16     6    30 1   
    17     7    14 1   
    18     7    22 1   
    19     7    23 1   
    20     8    32 1   
    21     9    24 1   
    22     9    25 1   
    23     9    27 1   
    24    10    13 2   
    25    10    34 1   
    26    11    13 1   
    27    11    14 ar  
    28    11    18 ar  
    29    12    15 ar  
    30    12    17 ar  
    31    12    19 1   
    32    13    21 1   
    33    16    51 1   
    34    17    52 1   
    35    19    20 1   
    36    19    50 2   
    37    20    21 2   
    38    21    35 1   
    39    22    24 1   
    40    22    36 1   
    41    22    37 1   
    42    23    25 1   
    43    23    38 1   
    44    23    39 1   
    45    24    40 1   
    46    24    41 1   
    47    25    42 1   
    48    25    43 1   
    49    26    44 1   
    50    26    45 1   
    51    26    46 1   
    52    27    47 1   
    53    27    48 1   
    54    27    49 1   
    55    31    51 1   
    56    33    52 1   
@<TRIPOS>SUBSTRUCTURE
     1 WYE         1 TEMP              0 ****  ****    0 ROOT
