@<TRIPOS>MOLECULE
WYE
   52    56     1     0     0
SMALL
abcg2


@<TRIPOS>ATOM
      1 C1          48.8860    14.3770    31.2190 ca         1 WYE      -0.256000
      2 N1          48.6090    12.8880    29.3350 nb         1 WYE      -0.699000
      3 C2          40.2890    11.0600    30.6600 ca         1 WYE      -0.218000
      4 N2          46.3650    12.0850    29.0470 na         1 WYE      -0.189400
      5 O2          42.4870    12.0960    30.9160 os         1 WYE      -0.220200
      6 C3          38.7440    11.4930    32.5350 ca         1 WYE      -0.298000
      7 N3          46.9820    15.1600    32.5570 nh         1 WYE      -0.804400
      8 C4          49.3670    13.6360    30.1420 ca         1 WYE       0.375900
      9 N4          47.1790    18.0030    33.0140 n3         1 WYE      -0.713600
     10 C5          45.1900    12.2060    29.7140 cc         1 WYE      -0.093100
     11 C6          46.7070    13.5300    30.7590 ca         1 WYE      -0.138800
     12 C7          40.9530    12.4160    32.5720 ca         1 WYE      -0.401600
     13 C8          45.3330    13.0700    30.7980 cd         1 WYE      -0.134200
     14 C9          47.5180    14.3890    31.5370 ca         1 WYE       0.377000
     15 C10         41.2120    11.8220    31.3360 ca         1 WYE       0.223100
     16 C11         39.0450    10.9090    31.2950 ca         1 WYE       0.233100
     17 C12         39.7060    12.2540    33.1820 ca         1 WYE       0.291100
     18 C13         47.3250    12.8590    29.6790 ca         1 WYE       0.379500
     19 C14         42.1340    13.1230    32.9910 c          1 WYE       0.599900
     20 C15         43.0930    12.8840    31.9010 cc         1 WYE      -0.098100
     21 C16         44.3650    13.3150    31.8180 cf         1 WYE      -0.033000
     22 C17         45.8730    16.0700    32.2390 c6         1 WYE       0.200800
     23 C18         47.8480    15.7200    33.5930 c6         1 WYE       0.200800
     24 C19         46.3830    17.4690    31.9150 c6         1 WYE       0.128300
     25 C20         48.3230    17.1350    33.2780 c6         1 WYE       0.128300
     26 C21         46.5960    11.2390    27.8880 c3         1 WYE       0.061900
     27 C22         47.5990    19.3710    32.7550 c3         1 WYE       0.150100
     28 H1          49.5840    14.9870    31.7700 ha         1 WYE       0.122000
     29 H2          40.4870    10.5950    29.7050 ha         1 WYE       0.150000
     30 H3          37.7690    11.3480    32.9830 ha         1 WYE       0.136000
     31 HO3         37.3120    10.0930    31.1560 ho         1 WYE       0.474000
     32 H4          50.4250    13.6740    29.9070 h4         1 WYE       0.018100
     33 HO4         40.2410    13.3120    34.6650 ho         1 WYE       0.503000
     34 H5          44.3250    11.6460    29.4050 h4         1 WYE       0.233000
     35 H16         44.6780    13.8980    32.6740 ha         1 WYE       0.216000
     36 H17         45.3170    15.6870    31.3890 h1         1 WYE       0.067200
     37 H17A        45.2000    16.1170    33.0990 h1         1 WYE       0.067200
     38 H18         47.2620    15.7510    34.5160 h1         1 WYE       0.067200
     39 H18A        48.6920    15.0550    33.7590 h1         1 WYE       0.067200
     40 H19         45.5280    18.1280    31.7460 h1         1 WYE       0.039950
     41 H19A        46.9680    17.4350    30.9780 h1         1 WYE       0.039950
     42 H20         49.0130    17.1230    32.4170 h1         1 WYE       0.039950
     43 H20A        48.8740    17.5280    34.1350 h1         1 WYE       0.039950
     44 H21         47.6310    11.3550    27.5820 h1         1 WYE       0.059700
     45 H21A        46.4070    10.1950    28.1400 h1         1 WYE       0.059700
     46 H21B        45.9400    11.5370    27.0710 h1         1 WYE       0.059700
     47 H22         48.1640    19.7490    33.6090 h1         1 WYE       0.033033
     48 H22A        48.2370    19.4520    31.8580 h1         1 WYE       0.033033
     49 H22B        46.7230    20.0040    32.6080 h1         1 WYE       0.033033
     50 O1          42.2970    13.7780    34.0320 o          1 WYE      -0.562100
     51 O3          38.1300    10.1550    30.6430 oh         1 WYE      -0.527100
     52 O4          39.4470    12.8240    34.3770 oh         1 WYE      -0.525100
@<TRIPOS>BOND
     1     1     8 ar  
     2     1    14 ar  
     3     1    28 1   
     4     2     8 ar  
     5     2    18 ar  
     6     3    15 ar  
     7     3    16 ar  
     8     3    29 1   
     9     4    10 1   
    10     4    18 1   
    11     4    26 1   
    12     5    15 1   
    13     5    20 1   
    14     6    16 ar  
    15     6    17 ar  
    16     6    30 1   
    17     7    14 1   
    18     7    22 1   
    19     7    23 1   
    20     8    32 1   
    21     9    24 1   
    22     9    25 1   
    23     9    27 1   
    24    10    13 2   
    25    10    34 1   
    26    11    13 1   
    27    11    14 ar  
    28    11    18 ar  
    29    12    15 ar  
    30    12    17 ar  
    31    12    19 1   
    32    13    21 1   
    33    16    51 1   
    34    17    52 1   
    35    19    20 1   
    36    19    50 2   
    37    20    21 2   
    38    21    35 1   
    39    22    24 1   
    40    22    36 1   
    41    22    37 1   
    42    23    25 1   
    43    23    38 1   
    44    23    39 1   
    45    24    40 1   
    46    24    41 1   
    47    25    42 1   
    48    25    43 1   
    49    26    44 1   
    50    26    45 1   
    51    26    46 1   
    52    27    47 1   
    53    27    48 1   
    54    27    49 1   
    55    31    51 1   
    56    33    52 1   
@<TRIPOS>SUBSTRUCTURE
     1 WYE         1 TEMP              0 ****  ****    0 ROOT
