@<TRIPOS>MOLECULE
WYF
   46    50     1     0     0
SMALL
bcc


@<TRIPOS>ATOM
      1 C1          -1.7380     5.3500    -0.0270 c3         1 WYF       0.127700
      2 N1          -3.6460    -0.7040    -0.2390 na         1 WYF      -0.040400
      3 O1          -1.0750     4.1040    -0.0390 os         1 WYF      -0.321900
      4 C2          -1.8170     2.9740    -0.0990 ca         1 WYF       0.118100
      5 N2          -4.2030    -3.4020     0.1040 n7         1 WYF      -0.792200
      6 O2           2.3130    -3.2260     0.0410 o          1 WYF      -0.560100
      7 C3          -3.2170     2.9720    -0.1620 ca         1 WYF      -0.191000
      8 O3           1.5490     0.1960    -0.1710 os         1 WYF      -0.198200
      9 C4          -3.9120     1.7750    -0.2130 ca         1 WYF      -0.105000
     10 O4           5.9350     2.1220    -0.2200 oh         1 WYF      -0.483100
     11 C5          -3.1880     0.5960    -0.2040 ca         1 WYF      -0.091200
     12 O5           5.3310    -2.5070     0.0360 oh         1 WYF      -0.481100
     13 C6          -1.7800     0.5690    -0.1450 ca         1 WYF      -0.013800
     14 C7          -1.0980     1.7830    -0.0910 ca         1 WYF      -0.119000
     15 C8          -1.4050    -0.8290    -0.1370 cc         1 WYF      -0.133200
     16 C9          -2.6020    -1.5480    -0.1850 cd         1 WYF      -0.049300
     17 C10         -5.0430    -1.0970    -0.2420 c6         1 WYF       0.002300
     18 C11         -5.1590    -2.5730    -0.6020 c6         1 WYF       0.138800
     19 C12         -2.8420    -3.0290    -0.2160 c6         1 WYF       0.199000
     20 C13         -0.1580    -1.5160    -0.0900 ce         1 WYF       0.006000
     21 C14          1.1260    -1.1160    -0.0960 cd         1 WYF      -0.085100
     22 C15          2.2980    -2.0000    -0.0310 c          1 WYF       0.597900
     23 C16          3.4120    -1.0870    -0.0730 ca         1 WYF      -0.413600
     24 C17          4.7970    -1.2870    -0.0420 ca         1 WYF       0.291100
     25 C18          5.6240    -0.1770    -0.0940 ca         1 WYF      -0.267000
     26 C19          5.0660     1.1070    -0.1750 ca         1 WYF       0.240100
     27 C20          3.6840     1.3300    -0.2080 ca         1 WYF      -0.307000
     28 C21          2.8980     0.2020    -0.1540 ca         1 WYF       0.235100
     29 H1          -2.3160     5.5180    -0.9400 h1         1 WYF       0.038033
     30 H1A         -2.4050     5.4520     0.8340 h1         1 WYF       0.038033
     31 H1B         -0.9650     6.1120     0.0410 h1         1 WYF       0.038033
     32 HN2         -4.3530    -3.3310     1.1030 hn         1 WYF       0.364800
     33 H3          -3.7800     3.8950    -0.1700 ha         1 WYF       0.135000
     34 H4          -4.9930     1.7790    -0.2540 ha         1 WYF       0.131000
     35 HO4          5.4740     2.9680    -0.2670 ho         1 WYF       0.435000
     36 HO5          4.6340    -3.1780     0.0710 ho         1 WYF       0.461000
     37 H7          -0.0210     1.8270    -0.0410 ha         1 WYF       0.164000
     38 H10         -5.4680    -0.9020     0.7460 h1         1 WYF       0.061200
     39 H10A        -5.5830    -0.4840    -0.9640 h1         1 WYF       0.061200
     40 H11         -5.0020    -2.7040    -1.6750 h1         1 WYF       0.070200
     41 H11A        -6.1720    -2.9090    -0.3820 h1         1 WYF       0.070200
     42 H12         -2.1630    -3.5320     0.4730 h1         1 WYF       0.079200
     43 H12A        -2.5950    -3.3990    -1.2170 h1         1 WYF       0.079200
     44 H13         -0.2340    -2.5980    -0.0420 ha         1 WYF       0.142000
     45 H18          6.7000    -0.2920    -0.0740 ha         1 WYF       0.168000
     46 H20          3.2670     2.3270    -0.2730 ha         1 WYF       0.158000
@<TRIPOS>BOND
     1     1     3 1   
     2     1    29 1   
     3     1    30 1   
     4     1    31 1   
     5     2    11 1   
     6     2    16 1   
     7     2    17 1   
     8     3     4 1   
     9     4     7 ar  
    10     4    14 ar  
    11     5    18 1   
    12     5    19 1   
    13     5    32 1   
    14     6    22 2   
    15     7     9 ar  
    16     7    33 1   
    17     8    21 1   
    18     8    28 1   
    19     9    11 ar  
    20     9    34 1   
    21    10    26 1   
    22    10    35 1   
    23    11    13 ar  
    24    12    24 1   
    25    12    36 1   
    26    13    14 ar  
    27    13    15 1   
    28    14    37 1   
    29    15    16 2   
    30    15    20 1   
    31    16    19 1   
    32    17    18 1   
    33    17    38 1   
    34    17    39 1   
    35    18    40 1   
    36    18    41 1   
    37    19    42 1   
    38    19    43 1   
    39    20    21 2   
    40    20    44 1   
    41    21    22 1   
    42    22    23 1   
    43    23    24 ar  
    44    23    28 ar  
    45    24    25 ar  
    46    25    26 ar  
    47    25    45 1   
    48    26    27 ar  
    49    27    28 ar  
    50    27    46 1   
@<TRIPOS>SUBSTRUCTURE
     1 WYF         1 TEMP              0 ****  ****    0 ROOT
