@<TRIPOS>MOLECULE
WYF
   46    50     1     0     0
SMALL
No Charge or Current Charge


@<TRIPOS>ATOM
      1 C1          -1.5520     5.3340     0.8670 c3         1 WYF       0.150900
      2 N1          -3.6070    -0.6660    -0.5090 na         1 WYF      -0.069700
      3 O1          -1.0210     3.9990     0.9460 os         1 WYF      -0.345100
      4 C2          -1.7460     2.8940     0.5480 ca         1 WYF       0.118100
      5 N2          -4.2490    -3.4170    -0.3590 n7         1 WYF      -0.847400
      6 O2           2.5800    -2.7560     1.5220 o          1 WYF      -0.560100
      7 C3          -3.0700     2.9930     0.0380 ca         1 WYF      -0.173000
      8 O3           1.3750    -0.0610    -0.3770 os         1 WYF      -0.198200
      9 C4          -3.7750     1.8330    -0.3460 ca         1 WYF      -0.087000
     10 O4           5.5510     1.8320    -1.9900 oh         1 WYF      -0.522100
     11 C5          -3.1300     0.5950    -0.2150 ca         1 WYF      -0.091200
     12 O5           5.4020    -2.0310     0.8460 oh         1 WYF      -0.520100
     13 C6          -1.8510     0.4950     0.2640 ca         1 WYF      -0.013800
     14 C7          -1.1330     1.6300     0.6670 ca         1 WYF      -0.101000
     15 C8          -1.4820    -0.9030     0.2940 cc         1 WYF      -0.133200
     16 C9          -2.6090    -1.5880    -0.1620 cd         1 WYF      -0.049300
     17 C10         -4.9810    -1.0400    -0.8870 c6         1 WYF       0.031600
     18 C11         -5.0200    -2.5430    -1.3000 c6         1 WYF       0.138800
     19 C12         -2.7920    -3.0830    -0.3210 c6         1 WYF       0.199000
     20 C13         -0.2070    -1.4710     0.7220 ce         1 WYF      -0.044000
     21 C14          1.0950    -1.1350     0.4330 cd         1 WYF      -0.085100
     22 C15          2.3750    -1.7730     0.8220 c          1 WYF       0.597900
     23 C16          3.3950    -0.9490     0.1630 ca         1 WYF      -0.413600
     24 C17          4.7770    -1.0450     0.1590 ca         1 WYF       0.291100
     25 C18          5.5030    -0.0960    -0.5760 ca         1 WYF      -0.249000
     26 C19          4.8300     0.9220    -1.2840 ca         1 WYF       0.240100
     27 C20          3.4260     1.0020    -1.2670 ca         1 WYF      -0.289000
     28 C21          2.7330     0.0430    -0.5280 ca         1 WYF       0.235100
     29 H1          -1.8010     5.5940    -0.1700 h1         1 WYF       0.038033
     30 H1A         -2.4560     5.4320     1.4820 h1         1 WYF       0.038033
     31 H1B         -0.8130     6.0590     1.2310 h1         1 WYF       0.038033
     32 HN2         -4.6300    -3.2750     0.5860 hn         1 WYF       0.420000
     33 H3          -3.5640     3.9560    -0.0610 ha         1 WYF       0.117000
     34 H4          -4.7910     1.9010    -0.7300 ha         1 WYF       0.113000
     35 HO4          4.9220     2.4540    -2.4120 ho         1 WYF       0.474000
     36 HO5          4.6970    -2.5650     1.2740 ho         1 WYF       0.500000
     37 H7          -0.1280     1.5430     1.0680 ha         1 WYF       0.146000
     38 H10         -5.6410    -0.8720    -0.0260 h1         1 WYF       0.061200
     39 H10A        -5.3260    -0.4090    -1.7170 h1         1 WYF       0.061200
     40 H11         -4.6020    -2.6460    -2.3140 h1         1 WYF       0.070200
     41 H11A        -6.0680    -2.8750    -1.3500 h1         1 WYF       0.070200
     42 H12         -2.3030    -3.6250     0.5040 h1         1 WYF       0.079200
     43 H12A        -2.3120    -3.4090    -1.2570 h1         1 WYF       0.079200
     44 H13         -0.3000    -2.3790     1.3200 ha         1 WYF       0.192000
     45 H18          6.5870    -0.1450    -0.5990 ha         1 WYF       0.150000
     46 H20          2.8860     1.7770    -1.8050 ha         1 WYF       0.140000
@<TRIPOS>BOND
     1     1     3 1   
     2     1    29 1   
     3     1    30 1   
     4     1    31 1   
     5     2    11 1   
     6     2    16 1   
     7     2    17 1   
     8     3     4 1   
     9     4     7 ar  
    10     4    14 ar  
    11     5    18 1   
    12     5    19 1   
    13     5    32 1   
    14     6    22 2   
    15     7     9 ar  
    16     7    33 1   
    17     8    21 1   
    18     8    28 1   
    19     9    11 ar  
    20     9    34 1   
    21    10    26 1   
    22    10    35 1   
    23    11    13 ar  
    24    12    24 1   
    25    12    36 1   
    26    13    14 ar  
    27    13    15 1   
    28    14    37 1   
    29    15    16 2   
    30    15    20 1   
    31    16    19 1   
    32    17    18 1   
    33    17    38 1   
    34    17    39 1   
    35    18    40 1   
    36    18    41 1   
    37    19    42 1   
    38    19    43 1   
    39    20    21 2   
    40    20    44 1   
    41    21    22 1   
    42    22    23 1   
    43    23    24 ar  
    44    23    28 ar  
    45    24    25 ar  
    46    25    26 ar  
    47    25    45 1   
    48    26    27 ar  
    49    27    28 ar  
    50    27    46 1   
@<TRIPOS>SUBSTRUCTURE
     1 WYF         1 TEMP              0 ****  ****    0 ROOT
