@<TRIPOS>MOLECULE
WYG
   32    34     1     0     0
SMALL
abcg2


@<TRIPOS>ATOM
      1 C10        -47.6100   -29.2560     6.6800 cc         1 WYG      -0.211100
      2 C17        -47.1190   -31.3460     0.2910 c6         1 WYG       0.143600
      3 C03        -43.7820   -30.8040     1.7280 c3         1 WYG      -0.204400
      4 C04        -45.2130   -30.3800     1.4050 c6         1 WYG       0.183300
      5 C05        -46.1480   -30.4040     2.6070 c6         1 WYG       0.188800
      6 C07        -48.3010   -29.2850     3.0710 ca         1 WYG       0.442900
      7 C08        -48.0970   -29.2100     4.4770 ca         1 WYG      -0.246800
      8 C09        -47.1810   -29.7170     5.4660 cd         1 WYG      -0.171200
      9 C12        -49.0670   -28.4600     5.1800 ca         1 WYG       0.137500
     10 C14        -50.2320   -28.0290     3.3420 ca         1 WYG       0.171900
     11 C16        -47.8380   -30.1190     0.8150 c6         1 WYG       0.196800
     12 N06        -47.4710   -29.9190     2.2150 nh         1 WYG      -0.771300
     13 N11        -48.7460   -28.4920     6.5030 na         1 WYG      -0.334400
     14 N13        -50.1400   -27.8480     4.6520 nb         1 WYG      -0.264000
     15 N15        -49.3960   -28.6950     2.5420 nb         1 WYG      -0.323000
     16 O01        -43.8220   -32.0300     3.7800 o          1 WYG      -0.736000
     17 O18        -45.6970   -31.2130     0.3390 os         1 WYG      -0.448000
     18 O19        -43.4010   -33.1650     1.8930 o          1 WYG      -0.736000
     19 H101       -47.1990   -29.4080     7.6640 h4         1 WYG       0.211000
     20 H171       -47.3880   -31.5140    -0.7520 h1         1 WYG       0.044700
     21 H172       -47.4270   -32.2240     0.8710 h1         1 WYG       0.044700
     22 H031       -43.2580   -30.9120     0.7770 hc         1 WYG       0.037200
     23 H032       -43.3120   -29.9930     2.2880 hc         1 WYG       0.037200
     24 H041       -45.1830   -29.3440     1.0430 h1         1 WYG       0.006700
     25 H051       -46.2010   -31.4080     3.0340 h1         1 WYG       0.084700
     26 H052       -45.7310   -29.7430     3.3610 h1         1 WYG       0.084700
     27 H091       -46.3190   -30.3420     5.3170 ha         1 WYG       0.237000
     28 H141       -51.0900   -27.5760     2.8520 h5         1 WYG       0.028100
     29 H161       -47.5860   -29.2400     0.2120 h1         1 WYG       0.054200
     30 H162       -48.9130   -30.2690     0.7420 h1         1 WYG       0.054200
     31 H111       -49.2770   -28.0470     7.2350 hn         1 WYG       0.347000
     32 C02        -43.6580   -32.1140     2.5340 c          1 WYG       0.708000
@<TRIPOS>BOND
     1     1     8 2   
     2     1    13 1   
     3     1    19 1   
     4     2    11 1   
     5     2    17 1   
     6     2    20 1   
     7     2    21 1   
     8     3     4 1   
     9     3    22 1   
    10     3    23 1   
    11     3    32 1   
    12     4     5 1   
    13     4    17 1   
    14     4    24 1   
    15     5    12 1   
    16     5    25 1   
    17     5    26 1   
    18     6     7 ar  
    19     6    12 1   
    20     6    15 ar  
    21     7     8 1   
    22     7     9 ar  
    23     8    27 1   
    24     9    13 1   
    25     9    14 ar  
    26    10    14 ar  
    27    10    15 ar  
    28    10    28 1   
    29    11    12 1   
    30    11    29 1   
    31    11    30 1   
    32    13    31 1   
    33    16    32 1   
    34    18    32 1   
@<TRIPOS>SUBSTRUCTURE
     1 WYG         1 TEMP              0 ****  ****    0 ROOT
