@<TRIPOS>MOLECULE
WYG
   32    34     1     0     0
SMALL
No Charge or Current Charge


@<TRIPOS>ATOM
      1 C10        -47.7360   -29.2610     6.7750 cc         1 WYG      -0.211100
      2 C17        -47.0510   -30.9880    -0.0010 c6         1 WYG       0.143600
      3 C03        -43.7000   -30.8940     1.6870 c3         1 WYG      -0.204400
      4 C04        -45.1660   -30.4620     1.3990 c6         1 WYG       0.183300
      5 C05        -46.0730   -30.3450     2.6710 c6         1 WYG       0.188800
      6 C07        -48.3220   -29.2140     3.1070 ca         1 WYG       0.442900
      7 C08        -48.2290   -29.0960     4.5090 ca         1 WYG      -0.246800
      8 C09        -47.4110   -29.7380     5.5180 cd         1 WYG      -0.171200
      9 C12        -49.0650   -28.2390     5.1830 ca         1 WYG       0.137500
     10 C14        -50.0320   -27.6690     3.1950 ca         1 WYG       0.171900
     11 C16        -48.0490   -30.8770     1.1930 c6         1 WYG       0.196800
     12 N06        -47.4980   -30.0470     2.3150 nh         1 WYG      -0.771300
     13 N11        -48.7650   -28.3270     6.5340 na         1 WYG      -0.334400
     14 N13        -49.9860   -27.5040     4.5380 nb         1 WYG      -0.264000
     15 N15        -49.2500   -28.4860     2.4500 nb         1 WYG      -0.323000
     16 O01        -43.6220   -32.1380     3.6970 o          1 WYG      -0.736000
     17 O18        -45.7360   -31.3910     0.4500 os         1 WYG      -0.448000
     18 O19        -43.5140   -33.2550     1.8620 o          1 WYG      -0.736000
     19 H101       -47.3500   -29.5030     7.7640 h4         1 WYG       0.211000
     20 H171       -46.9730   -30.0160    -0.5100 h1         1 WYG       0.044700
     21 H172       -47.4220   -31.7220    -0.7290 h1         1 WYG       0.044700
     22 H031       -43.2150   -31.0110     0.7100 hc         1 WYG       0.037200
     23 H032       -43.2700   -30.0800     2.2830 hc         1 WYG       0.037200
     24 H041       -45.1230   -29.4750     0.9140 h1         1 WYG       0.006700
     25 H051       -46.0290   -31.2860     3.2370 h1         1 WYG       0.084700
     26 H052       -45.6600   -29.5530     3.3130 h1         1 WYG       0.084700
     27 H091       -46.6610   -30.5060     5.3400 ha         1 WYG       0.237000
     28 H141       -50.7760   -27.0830     2.6580 h5         1 WYG       0.028100
     29 H161       -48.9920   -30.4610     0.8120 h1         1 WYG       0.054200
     30 H162       -48.2740   -31.8890     1.5590 h1         1 WYG       0.054200
     31 H111       -49.2410   -27.7860     7.2490 hn         1 WYG       0.347000
     32 C02        -43.6100   -32.2040     2.4780 c          1 WYG       0.708000
@<TRIPOS>BOND
     1     1     8 2   
     2     1    13 1   
     3     1    19 1   
     4     2    11 1   
     5     2    17 1   
     6     2    20 1   
     7     2    21 1   
     8     3     4 1   
     9     3    22 1   
    10     3    23 1   
    11     3    32 1   
    12     4     5 1   
    13     4    17 1   
    14     4    24 1   
    15     5    12 1   
    16     5    25 1   
    17     5    26 1   
    18     6     7 ar  
    19     6    12 1   
    20     6    15 ar  
    21     7     8 1   
    22     7     9 ar  
    23     8    27 1   
    24     9    13 1   
    25     9    14 ar  
    26    10    14 ar  
    27    10    15 ar  
    28    10    28 1   
    29    11    12 1   
    30    11    29 1   
    31    11    30 1   
    32    13    31 1   
    33    16    32 1   
    34    18    32 1   
@<TRIPOS>SUBSTRUCTURE
     1 WYG         1 TEMP              0 ****  ****    0 ROOT
