@<TRIPOS>MOLECULE
WYH
   25    27     1     0     0
SMALL
abcg2


@<TRIPOS>ATOM
      1 C1         -14.2160   -16.3170    -4.2650 ca         1 WYH      -0.092000
      2 C10        -19.3730   -20.2610    -5.7180 c6         1 WYH       0.145800
      3 C11        -18.1020   -19.5750    -6.2500 c6         1 WYH      -0.036200
      4 C2         -14.1050   -17.1170    -5.4160 ca         1 WYH      -0.141000
      5 C3         -15.1590   -17.9130    -5.8410 ca         1 WYH      -0.062000
      6 C4         -16.3520   -17.9120    -5.1070 ca         1 WYH      -0.084800
      7 C5         -17.6140   -18.5850    -5.2380 cc         1 WYH      -0.140400
      8 C6         -18.4000   -18.1660    -4.1980 cd         1 WYH      -0.100300
      9 C7         -16.4420   -17.0960    -3.9410 ca         1 WYH      -0.039200
     10 C8         -15.3850   -16.2970    -3.5140 ca         1 WYH      -0.130000
     11 C9         -19.8010   -18.6290    -3.9510 c6         1 WYH       0.211000
     12 N1         -17.6990   -17.2780    -3.4080 na         1 WYH      -0.226700
     13 N2         -20.3460   -19.3380    -5.1160 n7         1 WYH      -0.841400
     14 H1         -13.3770   -15.7070    -3.9570 ha         1 WYH       0.110000
     15 H9         -19.8700   -20.8080    -6.5220 h1         1 WYH       0.056200
     16 H10        -19.0940   -20.9880    -4.9500 h1         1 WYH       0.056200
     17 H12        -17.3390   -20.3300    -6.4620 hc         1 WYH       0.050200
     18 H11        -18.3200   -19.0800    -7.2040 hc         1 WYH       0.050200
     19 H2         -13.1790   -17.1090    -5.9780 ha         1 WYH       0.110000
     20 H3         -15.0620   -18.5250    -6.7300 ha         1 WYH       0.113000
     21 H5         -15.4720   -15.6820    -2.6270 ha         1 WYH       0.112000
     22 H6         -20.4560   -17.7870    -3.7160 h1         1 WYH       0.060200
     23 H7         -19.8250   -19.2990    -3.0830 h1         1 WYH       0.060200
     24 H4         -18.0620   -16.8050    -2.5970 hn         1 WYH       0.349000
     25 H13        -20.6140   -18.6510    -5.8140 hn         1 WYH       0.407000
@<TRIPOS>BOND
     1     1     4 ar  
     2     1    10 ar  
     3     1    14 1   
     4     2     3 1   
     5     2    13 1   
     6     2    15 1   
     7     2    16 1   
     8     3     7 1   
     9     3    17 1   
    10     3    18 1   
    11     4     5 ar  
    12     4    19 1   
    13     5     6 ar  
    14     5    20 1   
    15     6     7 1   
    16     6     9 ar  
    17     7     8 2   
    18     8    11 1   
    19     8    12 1   
    20     9    10 ar  
    21     9    12 1   
    22    10    21 1   
    23    11    13 1   
    24    11    22 1   
    25    11    23 1   
    26    12    24 1   
    27    13    25 1   
@<TRIPOS>SUBSTRUCTURE
     1 WYH         1 TEMP              0 ****  ****    0 ROOT
