@<TRIPOS>MOLECULE
WYH
   25    27     1     0     0
SMALL
No Charge or Current Charge


@<TRIPOS>ATOM
      1 C1         -14.2120   -16.2890    -4.3070 ca         1 WYH      -0.092000
      2 C10        -19.4050   -20.2650    -5.7670 c6         1 WYH       0.145800
      3 C11        -18.0730   -19.5970    -6.2150 c6         1 WYH      -0.036200
      4 C2         -14.1080   -17.1290    -5.4410 ca         1 WYH      -0.141000
      5 C3         -15.1910   -17.9500    -5.8220 ca         1 WYH      -0.062000
      6 C4         -16.3540   -17.9000    -5.0420 ca         1 WYH      -0.084800
      7 C5         -17.5930   -18.6070    -5.1790 cc         1 WYH      -0.140400
      8 C6         -18.4060   -18.1680    -4.1400 cd         1 WYH      -0.100300
      9 C7         -16.4600   -17.0900    -3.9450 ca         1 WYH      -0.039200
     10 C8         -15.4010   -16.2640    -3.5450 ca         1 WYH      -0.130000
     11 C9         -19.8200   -18.6740    -3.9240 c6         1 WYH       0.211000
     12 N1         -17.7050   -17.2230    -3.3530 na         1 WYH      -0.226700
     13 N2         -20.3480   -19.2760    -5.1770 n7         1 WYH      -0.841400
     14 H1         -13.3730   -15.6580    -4.0200 ha         1 WYH       0.110000
     15 H9         -19.8720   -20.7600    -6.6320 h1         1 WYH       0.056200
     16 H10        -19.1870   -21.0460    -5.0230 h1         1 WYH       0.056200
     17 H12        -17.3170   -20.3720    -6.4010 hc         1 WYH       0.050200
     18 H11        -18.2300   -19.0840    -7.1730 hc         1 WYH       0.050200
     19 H2         -13.1890   -17.1420    -6.0230 ha         1 WYH       0.110000
     20 H3         -15.1250   -18.6000    -6.6910 ha         1 WYH       0.113000
     21 H5         -15.4900   -15.6210    -2.6720 ha         1 WYH       0.112000
     22 H6         -20.4770   -17.8530    -3.5990 h1         1 WYH       0.060200
     23 H7         -19.8190   -19.4310    -3.1240 h1         1 WYH       0.060200
     24 H4         -18.0460   -16.7390    -2.5280 hn         1 WYH       0.349000
     25 H13        -20.4660   -18.5170    -5.8590 hn         1 WYH       0.407000
@<TRIPOS>BOND
     1     1     4 ar  
     2     1    10 ar  
     3     1    14 1   
     4     2     3 1   
     5     2    13 1   
     6     2    15 1   
     7     2    16 1   
     8     3     7 1   
     9     3    17 1   
    10     3    18 1   
    11     4     5 ar  
    12     4    19 1   
    13     5     6 ar  
    14     5    20 1   
    15     6     7 1   
    16     6     9 ar  
    17     7     8 2   
    18     8    11 1   
    19     8    12 1   
    20     9    10 ar  
    21     9    12 1   
    22    10    21 1   
    23    11    13 1   
    24    11    22 1   
    25    11    23 1   
    26    12    24 1   
    27    13    25 1   
@<TRIPOS>SUBSTRUCTURE
     1 WYH         1 TEMP              0 ****  ****    0 ROOT
