@<TRIPOS>MOLECULE
WYI
   76    80     1     0     0
SMALL
abcg2


@<TRIPOS>ATOM
      1 C11         15.0730    -9.7560    18.1690 ca         1 WYI       0.494900
      2 C13         13.9960    -8.5520    16.4140 ca         1 WYI       0.206500
      3 C16         14.7340    -7.1220    17.9740 cc         1 WYI       0.403800
      4 C18         14.1430   -10.7730    16.3160 ca         1 WYI       0.441900
      5 C20         14.5290   -13.1910    15.9760 c3         1 WYI       0.279800
      6 C21         15.9350   -13.2700    15.4040 ca         1 WYI      -0.103300
      7 C22         16.9370   -13.9340    16.1080 ca         1 WYI      -0.093000
      8 C23         18.2220   -14.0430    15.5880 ca         1 WYI      -0.110000
      9 C25         17.5270   -12.8180    13.6390 ca         1 WYI      -0.110000
     10 C26         16.2430   -12.7120    14.1640 ca         1 WYI      -0.093000
     11 C29         13.6110   -16.6970    15.6500 c          1 WYI       0.647100
     12 C31         13.6090   -19.0940    16.0990 c6         1 WYI       0.084000
     13 C32         13.1480   -19.6280    17.4520 c6         1 WYI       0.143300
     14 C01         17.5070   -11.9690    23.1300 c3         1 WYI       0.078900
     15 C03         16.6450   -12.9210    20.9180 cc         1 WYI      -0.107300
     16 C04         16.8600   -14.4030    21.1590 c3         1 WYI       0.017300
     17 C05         15.8690   -14.9200    22.2210 c3         1 WYI      -0.086433
     18 C06         18.3100   -14.7000    21.5890 c3         1 WYI      -0.086433
     19 C07         16.5970   -15.1670    19.8530 c3         1 WYI      -0.086433
     20 C08         16.1360   -12.2990    19.7840 cd         1 WYI      -0.220000
     21 C09         16.1230   -10.9270    20.0930 cd         1 WYI       0.506900
     22 C12         14.6740    -8.5010    17.6440 ca         1 WYI      -0.429900
     23 C24         18.5210   -13.4850    14.3490 ca         1 WYI      -0.104000
     24 C27         13.6440   -14.3320    15.4770 c3         1 WYI       0.177600
     25 C33         12.6630   -21.0660    17.3850 c3         1 WYI       0.153800
     26 C36         14.7390   -18.2720    18.5690 c6         1 WYI       0.135600
     27 C37         15.2420   -17.6910    17.2560 c6         1 WYI       0.075000
     28 N02         16.8970   -11.9280    21.8130 na         1 WYI       0.123800
     29 N10         15.7190    -9.8150    19.3590 nu         1 WYI      -0.877800
     30 N14         13.7040    -7.2710    16.0950 na         1 WYI      -0.181100
     31 N15         14.1520    -6.3900    17.0420 nd         1 WYI      -0.527100
     32 N17         13.7100    -9.6560    15.7150 nb         1 WYI      -0.299000
     33 N19         13.8510   -11.9430    15.6800 nu         1 WYI      -0.908100
     34 N30         14.1750   -17.7620    16.2610 n          1 WYI      -0.409800
     35 N34         11.4510   -21.1650    16.5660 n8         1 WYI      -1.005200
     36 N39         14.8080   -10.8680    17.4900 nb         1 WYI      -0.325000
     37 N40         16.5900   -10.7010    21.3180 nc         1 WYI      -0.586800
     38 O28         14.2200   -15.5380    15.9890 os         1 WYI      -0.464100
     39 O35         14.2260   -19.5900    18.3910 os         1 WYI      -0.465000
     40 O38         12.6680   -16.7480    14.8720 o          1 WYI      -0.536000
     41 H1          15.1720    -6.6470    18.8380 h4         1 WYI       0.045800
     42 H2          14.5920   -13.2790    17.0590 h1         1 WYI       0.095700
     43 H3          16.7060   -14.3690    17.0710 ha         1 WYI       0.109500
     44 H4          18.9880   -14.5600    16.1520 ha         1 WYI       0.112500
     45 H5          17.7510   -12.3780    12.6750 ha         1 WYI       0.112500
     46 H6          15.4810   -12.1850    13.6030 ha         1 WYI       0.109500
     47 H8          14.3770   -19.7610    15.6930 h1         1 WYI       0.080700
     48 H9          12.3370   -18.9830    17.8220 h1         1 WYI       0.043700
     49 H10         17.1680   -11.0930    23.6760 h1         1 WYI       0.055700
     50 H11         17.2010   -12.8610    23.6670 h1         1 WYI       0.055700
     51 H12         18.5960   -11.9480    23.0570 h1         1 WYI       0.055700
     52 H13         16.0050   -14.4350    23.1870 hc         1 WYI       0.039922
     53 H14         14.8410   -14.7500    21.8960 hc         1 WYI       0.039922
     54 H15         16.0120   -15.9930    22.3610 hc         1 WYI       0.039922
     55 H16         18.5530   -14.2820    22.5630 hc         1 WYI       0.039922
     56 H17         18.4520   -15.7810    21.6470 hc         1 WYI       0.039922
     57 H18         19.0170   -14.3020    20.8580 hc         1 WYI       0.039922
     58 H19         16.7280   -16.2350    20.0300 hc         1 WYI       0.039922
     59 H20         15.5820   -15.0060    19.4880 hc         1 WYI       0.039922
     60 H21         17.2980   -14.8640    19.0750 hc         1 WYI       0.039922
     61 H22         15.8130   -12.7600    18.8750 ha         1 WYI       0.164000
     62 H23         19.5210   -13.5640    13.9420 ha         1 WYI       0.113000
     63 H24         12.6310   -14.2150    15.8620 h1         1 WYI       0.061200
     64 H25         13.6130   -14.3620    14.3870 h1         1 WYI       0.061200
     65 H26         12.5280   -21.4210    18.4150 h1         1 WYI       0.045200
     66 H27         13.4410   -21.6810    16.9280 h1         1 WYI       0.045200
     67 H28         15.5550   -18.3470    19.2870 h1         1 WYI       0.052700
     68 H29         13.9570   -17.6230    18.9830 h1         1 WYI       0.052700
     69 H30         16.0940   -18.2760    16.8960 h1         1 WYI       0.067200
     70 H31         15.5590   -16.6630    17.3930 h1         1 WYI       0.067200
     71 H32         15.8660    -8.9350    19.8330 hn         1 WYI       0.516000
     72 H33         13.2200    -6.9340    15.2780 hn         1 WYI       0.384000
     73 H34         13.4670   -11.8260    14.7550 hn         1 WYI       0.496000
     74 H35         11.2070   -22.1400    16.4350 hn         1 WYI       0.400500
     75 H36         10.6700   -20.7400    17.0550 hn         1 WYI       0.400500
     76 H7          12.7780   -19.0480    15.4040 h1         1 WYI       0.080700
@<TRIPOS>BOND
     1     1    22 ar  
     2     1    29 1   
     3     1    36 ar  
     4     2    22 ar  
     5     2    30 1   
     6     2    32 ar  
     7     3    22 1   
     8     3    31 2   
     9     3    41 1   
    10     4    32 ar  
    11     4    33 1   
    12     4    36 ar  
    13     5     6 1   
    14     5    24 1   
    15     5    33 1   
    16     5    42 1   
    17     6     7 ar  
    18     6    10 ar  
    19     7     8 ar  
    20     7    43 1   
    21     8    23 ar  
    22     8    44 1   
    23     9    10 ar  
    24     9    23 ar  
    25     9    45 1   
    26    10    46 1   
    27    11    34 1   
    28    11    38 1   
    29    11    40 2   
    30    12    13 1   
    31    12    34 1   
    32    12    47 1   
    33    12    76 1   
    34    13    25 1   
    35    13    39 1   
    36    13    48 1   
    37    14    28 1   
    38    14    49 1   
    39    14    50 1   
    40    14    51 1   
    41    15    16 1   
    42    15    20 2   
    43    15    28 1   
    44    16    17 1   
    45    16    18 1   
    46    16    19 1   
    47    17    52 1   
    48    17    53 1   
    49    17    54 1   
    50    18    55 1   
    51    18    56 1   
    52    18    57 1   
    53    19    58 1   
    54    19    59 1   
    55    19    60 1   
    56    20    21 1   
    57    20    61 1   
    58    21    29 1   
    59    21    37 2   
    60    23    62 1   
    61    24    38 1   
    62    24    63 1   
    63    24    64 1   
    64    25    35 1   
    65    25    65 1   
    66    25    66 1   
    67    26    27 1   
    68    26    39 1   
    69    26    67 1   
    70    26    68 1   
    71    27    34 1   
    72    27    69 1   
    73    27    70 1   
    74    28    37 1   
    75    29    71 1   
    76    30    31 1   
    77    30    72 1   
    78    33    73 1   
    79    35    74 1   
    80    35    75 1   
@<TRIPOS>SUBSTRUCTURE
     1 WYI         1 TEMP              0 ****  ****    0 ROOT
