@<TRIPOS>MOLECULE
WYI
   76    80     1     0     0
SMALL
No Charge or Current Charge


@<TRIPOS>ATOM
      1 C11         15.2610    -9.5540    18.0830 ca         1 WYI       0.494900
      2 C13         14.3140    -8.3220    16.2780 ca         1 WYI       0.206500
      3 C16         15.1750    -6.9830    17.8700 cc         1 WYI       0.403800
      4 C18         14.3010   -10.5890    16.2820 ca         1 WYI       0.441900
      5 C20         14.3930   -13.1290    16.0290 c3         1 WYI       0.279800
      6 C21         15.8450   -13.3470    15.5890 ca         1 WYI      -0.103300
      7 C22         16.8700   -13.4300    16.5560 ca         1 WYI      -0.093000
      8 C23         18.2050   -13.6320    16.1670 ca         1 WYI      -0.110000
      9 C25         17.5200   -13.6630    13.8350 ca         1 WYI      -0.110000
     10 C26         16.1840   -13.4610    14.2230 ca         1 WYI      -0.093000
     11 C29         13.1330   -16.6090    15.7850 c          1 WYI       0.647100
     12 C31         13.1190   -19.1010    16.0910 c6         1 WYI       0.084000
     13 C32         13.5020   -20.2440    17.0730 c6         1 WYI       0.143300
     14 C01         18.2800   -11.7660    22.7390 c3         1 WYI       0.078900
     15 C03         16.4820   -12.6310    21.0770 cc         1 WYI      -0.107300
     16 C04         16.3510   -14.1020    21.4770 c3         1 WYI       0.017300
     17 C05         15.6380   -14.2190    22.8490 c3         1 WYI      -0.086433
     18 C06         17.7380   -14.7960    21.5370 c3         1 WYI      -0.086433
     19 C07         15.4930   -14.8670    20.4290 c3         1 WYI      -0.086433
     20 C08         15.8260   -11.9470    20.0890 cd         1 WYI      -0.220000
     21 C09         16.3010   -10.6310    20.1010 cd         1 WYI       0.506900
     22 C12         14.9550    -8.3430    17.4780 ca         1 WYI      -0.429900
     23 C24         18.5300   -13.7510    14.8060 ca         1 WYI      -0.104000
     24 C27         13.4310   -14.2320    15.5080 c3         1 WYI       0.177600
     25 C33         13.2930   -21.6630    16.4520 c3         1 WYI       0.153800
     26 C36         15.1600   -18.9120    18.1660 c6         1 WYI       0.135600
     27 C37         14.8900   -17.6800    17.2670 c6         1 WYI       0.075000
     28 N02         17.3130   -11.6330    21.6330 na         1 WYI       0.123800
     29 N10         15.9340    -9.6170    19.2870 nu         1 WYI      -0.877800
     30 N14         14.1620    -6.9870    15.9740 na         1 WYI      -0.181100
     31 N15         14.6920    -6.1330    16.9530 nd         1 WYI      -0.527100
     32 N17         13.9650    -9.4520    15.6410 nb         1 WYI      -0.299000
     33 N19         13.9530   -11.7680    15.6460 nu         1 WYI      -0.908100
     34 N30         13.6210   -17.7390    16.4650 n          1 WYI      -0.409800
     35 N34         11.8880   -21.9880    16.0900 n8         1 WYI      -1.005200
     36 N39         14.9290   -10.6960    17.4690 nb         1 WYI      -0.325000
     37 N40         17.1870   -10.3940    21.0220 nc         1 WYI      -0.586800
     38 O28         13.8320   -15.4810    16.1050 os         1 WYI      -0.464100
     39 O35         14.8870   -20.1340    17.4580 os         1 WYI      -0.465000
     40 O38         12.1920   -16.6400    15.0050 o          1 WYI      -0.536000
     41 H1          15.6450    -6.5590    18.7480 h4         1 WYI       0.045800
     42 H2          14.3510   -13.2170    17.1250 h1         1 WYI       0.095700
     43 H3          16.6330   -13.3340    17.6120 ha         1 WYI       0.109500
     44 H4          18.9860   -13.6960    16.9210 ha         1 WYI       0.112500
     45 H5          17.7710   -13.7500    12.7800 ha         1 WYI       0.112500
     46 H6          15.4140   -13.3870    13.4580 ha         1 WYI       0.109500
     47 H8          13.5110   -19.3470    15.0940 h1         1 WYI       0.080700
     48 H9          12.8830   -20.1660    17.9790 h1         1 WYI       0.043700
     49 H10         18.5660   -10.7730    23.1060 h1         1 WYI       0.055700
     50 H11         17.8390   -12.3290    23.5670 h1         1 WYI       0.055700
     51 H12         19.1780   -12.2810    22.3780 h1         1 WYI       0.055700
     52 H13         16.2210   -13.7570    23.6520 hc         1 WYI       0.039922
     53 H14         14.6590   -13.7260    22.8190 hc         1 WYI       0.039922
     54 H15         15.4800   -15.2700    23.1190 hc         1 WYI       0.039922
     55 H16         18.3400   -14.4350    22.3760 hc         1 WYI       0.039922
     56 H17         17.6270   -15.8800    21.6680 hc         1 WYI       0.039922
     57 H18         18.2980   -14.6240    20.6100 hc         1 WYI       0.039922
     58 H19         15.3990   -15.9280    20.6940 hc         1 WYI       0.039922
     59 H20         14.4790   -14.4540    20.3680 hc         1 WYI       0.039922
     60 H21         15.9470   -14.8120    19.4330 hc         1 WYI       0.039922
     61 H22         15.0740   -12.3470    19.4250 ha         1 WYI       0.164000
     62 H23         19.5640   -13.9070    14.5050 ha         1 WYI       0.113000
     63 H24         12.4030   -13.9800    15.8010 h1         1 WYI       0.061200
     64 H25         13.4740   -14.2840    14.4130 h1         1 WYI       0.061200
     65 H26         13.6480   -22.4140    17.1720 h1         1 WYI       0.045200
     66 H27         13.9130   -21.7440    15.5480 h1         1 WYI       0.045200
     67 H28         16.2080   -18.9110    18.4970 h1         1 WYI       0.052700
     68 H29         14.5230   -18.8660    19.0620 h1         1 WYI       0.052700
     69 H30         15.7330   -17.5630    16.5710 h1         1 WYI       0.067200
     70 H31         14.8800   -16.7890    17.9100 h1         1 WYI       0.067200
     71 H32         16.3310    -8.7390    19.5960 hn         1 WYI       0.516000
     72 H33         13.7160    -6.6270    15.1330 hn         1 WYI       0.384000
     73 H34         13.5520   -11.6430    14.7170 hn         1 WYI       0.496000
     74 H35         11.8500   -22.9480    15.7240 hn         1 WYI       0.400500
     75 H36         11.3220   -22.0400    16.9470 hn         1 WYI       0.400500
     76 H7          12.0240   -19.0720    16.0020 h1         1 WYI       0.080700
@<TRIPOS>BOND
     1     1    22 ar  
     2     1    29 1   
     3     1    36 ar  
     4     2    22 ar  
     5     2    30 1   
     6     2    32 ar  
     7     3    22 1   
     8     3    31 2   
     9     3    41 1   
    10     4    32 ar  
    11     4    33 1   
    12     4    36 ar  
    13     5     6 1   
    14     5    24 1   
    15     5    33 1   
    16     5    42 1   
    17     6     7 ar  
    18     6    10 ar  
    19     7     8 ar  
    20     7    43 1   
    21     8    23 ar  
    22     8    44 1   
    23     9    10 ar  
    24     9    23 ar  
    25     9    45 1   
    26    10    46 1   
    27    11    34 1   
    28    11    38 1   
    29    11    40 2   
    30    12    13 1   
    31    12    34 1   
    32    12    47 1   
    33    12    76 1   
    34    13    25 1   
    35    13    39 1   
    36    13    48 1   
    37    14    28 1   
    38    14    49 1   
    39    14    50 1   
    40    14    51 1   
    41    15    16 1   
    42    15    20 2   
    43    15    28 1   
    44    16    17 1   
    45    16    18 1   
    46    16    19 1   
    47    17    52 1   
    48    17    53 1   
    49    17    54 1   
    50    18    55 1   
    51    18    56 1   
    52    18    57 1   
    53    19    58 1   
    54    19    59 1   
    55    19    60 1   
    56    20    21 1   
    57    20    61 1   
    58    21    29 1   
    59    21    37 2   
    60    23    62 1   
    61    24    38 1   
    62    24    63 1   
    63    24    64 1   
    64    25    35 1   
    65    25    65 1   
    66    25    66 1   
    67    26    27 1   
    68    26    39 1   
    69    26    67 1   
    70    26    68 1   
    71    27    34 1   
    72    27    69 1   
    73    27    70 1   
    74    28    37 1   
    75    29    71 1   
    76    30    31 1   
    77    30    72 1   
    78    33    73 1   
    79    35    74 1   
    80    35    75 1   
@<TRIPOS>SUBSTRUCTURE
     1 WYI         1 TEMP              0 ****  ****    0 ROOT
