@<TRIPOS>MOLECULE
WYK
   26    25     1     0     0
SMALL
abcg2


@<TRIPOS>ATOM
      1 N          230.9250   240.5130   285.0210 n8         1 WYK      -1.016200
      2 CA         230.8630   240.4230   283.5690 c3         1 WYK       0.012500
      3 C          232.2120   239.9290   282.9760 c          1 WYK       0.717000
      4 O          233.0550   239.4860   283.7820 o          1 WYK      -0.725000
      5 CB         230.4580   241.7700   282.9640 c3         1 WYK      -0.081400
      6 CG         229.1290   242.3100   283.4720 c3         1 WYK       0.148300
      7 CD         228.8320   243.7040   282.9260 c3         1 WYK       0.238800
      8 NE         228.7840   243.7990   281.4860 nu         1 WYK      -0.964400
      9 CZ         227.6670   243.7600   280.7020 c2         1 WYK       0.824100
     10 OH         228.0340   241.4810   283.1220 oh         1 WYK      -0.701000
     11 NH1        227.6260   244.0660   279.4530 n2         1 WYK      -0.946100
     12 NH2        226.5050   243.4020   281.3510 nv         1 WYK      -1.023200
     13 OXT        232.3240   239.9900   281.7370 o          1 WYK      -0.725000
     14 H          230.0540   240.2120   285.4360 hn         1 WYK       0.386500
     15 H2         231.6420   239.8690   285.3330 hn         1 WYK       0.386500
     16 HA         230.1270   239.6680   283.2410 h1         1 WYK      -0.001300
     17 HB2        231.2330   242.5060   283.2050 hc         1 WYK       0.057200
     18 HB3        230.4230   241.6840   281.8760 hc         1 WYK       0.057200
     19 HG2        229.1900   242.4190   284.5650 h1         1 WYK       0.036700
     20 HD2        229.6150   244.3760   283.2840 h1         1 WYK       0.042700
     21 HD3        227.8960   244.0730   283.3520 h1         1 WYK       0.042700
     22 HE         229.6350   244.0670   281.0220 hn         1 WYK       0.483000
     23 H11        228.1800   240.5930   283.4610 ho         1 WYK       0.451000
     24 HH11       228.5240   244.4170   279.1380 hn         1 WYK       0.368400
     25 HH21       226.5960   242.6610   282.0310 hn         1 WYK       0.464000
     26 HH22       225.7440   243.2430   280.7100 hn         1 WYK       0.464000
@<TRIPOS>BOND
     1     1     2 1   
     2     1    14 1   
     3     1    15 1   
     4     2     3 1   
     5     2     5 1   
     6     2    16 1   
     7     3     4 1   
     8     3    13 1   
     9     5     6 1   
    10     5    17 1   
    11     5    18 1   
    12     6     7 1   
    13     6    10 1   
    14     6    19 1   
    15     7     8 1   
    16     7    20 1   
    17     7    21 1   
    18     8     9 1   
    19     8    22 1   
    20     9    11 2   
    21     9    12 1   
    22    10    23 1   
    23    11    24 1   
    24    12    25 1   
    25    12    26 1   
@<TRIPOS>SUBSTRUCTURE
     1 WYK         1 TEMP              0 ****  ****    0 ROOT
