@<TRIPOS>MOLECULE
WYK
   26    25     1     0     0
SMALL
No Charge or Current Charge


@<TRIPOS>ATOM
      1 N          231.1970   240.7160   285.1450 n8         1 WYK      -1.016200
      2 CA         230.9270   240.4500   283.6850 c3         1 WYK       0.012500
      3 C          232.0910   239.7130   282.8850 c          1 WYK       0.717000
      4 O          232.1100   238.4890   282.9020 o          1 WYK      -0.725000
      5 CB         230.4680   241.7540   282.9670 c3         1 WYK      -0.081400
      6 CG         229.1260   242.3600   283.4620 c3         1 WYK       0.148300
      7 CD         228.8240   243.7570   282.8190 c3         1 WYK       0.238800
      8 NE         228.4990   243.6790   281.3730 nu         1 WYK      -0.964400
      9 CZ         227.3340   244.0140   280.8680 c2         1 WYK       0.824100
     10 OH         228.0520   241.4300   283.2040 oh         1 WYK      -0.701000
     11 NH1        227.3400   244.4950   279.7290 n2         1 WYK      -0.946100
     12 NH2        226.6260   242.9780   281.1440 nv         1 WYK      -1.023200
     13 OXT        232.9270   240.3820   282.2880 o          1 WYK      -0.725000
     14 H          230.3370   241.0330   285.6060 hn         1 WYK       0.386500
     15 H2         231.4120   239.8260   285.6140 hn         1 WYK       0.386500
     16 HA         230.0770   239.7540   283.6650 h1         1 WYK      -0.001300
     17 HB2        231.2580   242.5090   283.0670 hc         1 WYK       0.057200
     18 HB3        230.3780   241.5480   281.8930 hc         1 WYK       0.057200
     19 HG2        229.2110   242.5280   284.5440 h1         1 WYK       0.036700
     20 HD2        229.6950   244.4100   282.9670 h1         1 WYK       0.042700
     21 HD3        227.9880   244.2180   283.3650 h1         1 WYK       0.042700
     22 HE         229.2690   243.8120   280.7300 hn         1 WYK       0.483000
     23 H11        228.3190   240.5760   283.6100 ho         1 WYK       0.451000
     24 HH11       228.1920   245.0570   279.6420 hn         1 WYK       0.368400
     25 HH21       227.2220   242.4240   281.7530 hn         1 WYK       0.464000
     26 HH22       226.3950   242.5100   280.2850 hn         1 WYK       0.464000
@<TRIPOS>BOND
     1     1     2 1   
     2     1    14 1   
     3     1    15 1   
     4     2     3 1   
     5     2     5 1   
     6     2    16 1   
     7     3     4 1   
     8     3    13 1   
     9     5     6 1   
    10     5    17 1   
    11     5    18 1   
    12     6     7 1   
    13     6    10 1   
    14     6    19 1   
    15     7     8 1   
    16     7    20 1   
    17     7    21 1   
    18     8     9 1   
    19     8    22 1   
    20     9    11 2   
    21     9    12 1   
    22    10    23 1   
    23    11    24 1   
    24    12    25 1   
    25    12    26 1   
@<TRIPOS>SUBSTRUCTURE
     1 WYK         1 TEMP              0 ****  ****    0 ROOT
