@<TRIPOS>MOLECULE
WYL
  134   142     1     0     0
SMALL
No Charge or Current Charge


@<TRIPOS>ATOM
      1 N3         207.3580   163.9090   180.6210 nc         1 WYL      -0.218800
      2 C5         207.7110   161.7300   181.1780 cc         1 WYL      -0.264000
      3 C6         207.0460   162.2850   178.7750 c3         1 WYL       0.029300
      4 C7         206.0730   161.0800   178.7680 c          1 WYL       0.595100
      5 C10        208.3150   162.0550   177.8870 c3         1 WYL      -0.072700
      6 C17        207.4380   160.8470   187.6990 c3         1 WYL       0.172800
      7 C20        205.3980   159.4170   187.5060 c3         1 WYL       0.157800
      8 C21        207.2880   158.7000   188.9560 c3         1 WYL       0.176800
      9 C22        204.9270   158.2360   186.6000 c3         1 WYL       0.243500
     10 C24        205.7980   156.6340   188.3560 c3         1 WYL       0.239800
     11 C26        206.0710   156.0610   185.9020 ca         1 WYL       0.393900
     12 C1         207.8950   162.5690   182.2320 cd         1 WYL       0.440300
     13 C11        209.3430   163.2100   177.9890 c3         1 WYL      -0.095100
     14 C12        207.9390   161.8140   176.4020 c3         1 WYL      -0.095100
     15 C14        208.2040   160.7820   183.8250 c3         1 WYL       0.162600
     16 C16        207.4960   161.4010   186.2520 c3         1 WYL      -0.069400
     17 C18        203.3880   158.1500   186.5510 c3         1 WYL      -0.103100
     18 C23        207.1720   157.1630   188.8170 c3         1 WYL      -0.096400
     19 C29        207.1090   154.4760   183.9860 ca         1 WYL      -0.246000
     20 C30        206.8800   153.9990   185.2850 ca         1 WYL       0.144900
     21 C31        206.7830   155.8210   183.7020 ca         1 WYL       0.121000
     22 C34        207.0160   156.4240   182.3670 cc         1 WYL       0.500000
     23 C36        207.5650   156.5500   180.3550 cd         1 WYL       0.495300
     24 C37        208.7770   154.8900   178.8500 c3         1 WYL      -0.076100
     25 C41        210.8970   158.7500   178.4300 cc         1 WYL       0.266000
     26 C43        210.1630   157.8310   179.1460 cd         1 WYL      -0.165000
     27 C44        208.0420   156.2700   178.9260 c6         1 WYL      -0.009000
     28 C45        206.7650   156.2310   178.0220 c6         1 WYL      -0.066400
     29 C46        207.0920   156.2780   176.5120 c6         1 WYL      -0.071400
     30 C47        207.8140   157.5940   176.1600 c6         1 WYL      -0.003100
     31 C48        208.9140   157.8920   177.1510 cc         1 WYL      -0.188300
     32 C49        209.0220   157.3400   178.4110 cd         1 WYL      -0.032300
     33 C50        203.6840   160.2180   178.9080 c5         1 WYL       0.039700
     34 C51        203.7200   159.2530   177.6800 c          1 WYL       0.604100
     35 C52        202.3540   161.0290   178.8560 c5         1 WYL      -0.079400
     36 C55        202.6650   162.2520   179.7530 c5         1 WYL       0.153300
     37 C56        204.0980   162.6330   179.2690 c5         1 WYL       0.072000
     38 C59        202.6010   155.6230   177.9440 c3         1 WYL       0.148600
     39 C60        203.0040   156.8970   177.1510 c3         1 WYL       0.153000
     40 C61        199.8150   157.7990   175.1960 ca         1 WYL      -0.099000
     41 C62        200.7000   157.5470   176.2580 ca         1 WYL      -0.098000
     42 C63        202.0340   157.1690   176.0010 ca         1 WYL      -0.097300
     43 C64        202.4690   157.0570   174.6660 ca         1 WYL      -0.098000
     44 C65        201.5810   157.3090   173.6060 ca         1 WYL      -0.099000
     45 C66        200.2470   157.6710   173.8620 ca         1 WYL       0.000000
     46 C68        198.1350   158.5550   170.7690 cc         1 WYL       0.420300
     47 C70        199.3400   157.9410   172.7480 cc         1 WYL      -0.178000
     48 C71        198.1190   157.3100   172.6140 cd         1 WYL       0.301300
     49 C72        197.5100   156.2880   173.5390 c3         1 WYL      -0.121400
     50 N19        206.8730   159.4780   187.7610 n3         1 WYL      -0.734600
     51 N2         207.6740   163.8780   181.8920 nd         1 WYL      -0.365000
     52 N25        205.5300   156.9020   186.9180 nh         1 WYL      -0.764300
     53 N27        206.2560   156.5980   184.6760 nb         1 WYL      -0.230000
     54 N28        206.3650   154.7880   186.2450 nb         1 WYL      -0.244000
     55 N33        206.8470   157.7120   182.1120 nd         1 WYL      -0.322300
     56 N35        207.4510   155.6590   181.3220 nc         1 WYL      -0.710000
     57 N38        210.8360   157.1420   181.5500 n1         1 WYL      -0.479000
     58 N4         207.3790   162.6100   180.1750 na         1 WYL       0.132800
     59 N53        203.1210   158.0630   178.0310 ns         1 WYL      -0.481900
     60 N67        197.4210   157.6800   171.4730 nd         1 WYL      -0.637000
     61 N8         204.6860   161.3200   178.9020 n          1 WYL      -0.388800
     62 O13        208.1790   162.1850   183.5110 os         1 WYL      -0.438300
     63 O32        207.2120   157.8070   180.7530 os         1 WYL      -0.108700
     64 O54        204.1880   159.4720   176.5690 o          1 WYL      -0.614100
     65 O57        202.6330   161.8970   181.1400 oh         1 WYL      -0.656000
     66 O9         206.4830   159.9310   178.6660 o          1 WYL      -0.583100
     67 S42        210.2260   159.0060   176.8180 ss         1 WYL       0.174000
     68 S69        199.7010   158.9850   171.4090 ss         1 WYL      -0.042400
     69 H1         207.7740   160.6580   181.0660 h4         1 WYL       0.182000
     70 H2         206.5050   163.1390   178.3520 h1         1 WYL       0.086700
     71 H3         208.8170   161.1530   178.2570 hc         1 WYL       0.076700
     72 H6         208.4630   160.8540   188.0960 h1         1 WYL       0.031200
     73 H7         206.8460   161.5280   188.3250 h1         1 WYL       0.031200
     74 H8         205.0470   160.3410   187.0300 h1         1 WYL       0.037700
     75 H9         204.8620   159.3640   188.4630 h1         1 WYL       0.037700
     76 H10        208.3380   158.9190   189.1920 h1         1 WYL       0.027200
     77 H11        206.6990   159.0210   189.8260 h1         1 WYL       0.027200
     78 H12        205.2380   158.5560   185.5980 h1         1 WYL       0.090700
     79 H13        205.0130   157.0820   188.9810 h1         1 WYL       0.057200
     80 H14        205.7490   155.5570   188.5600 h1         1 WYL       0.057200
     81 H15        209.7380   163.3040   179.0070 hc         1 WYL       0.043200
     82 H16        210.1970   163.0280   177.3240 hc         1 WYL       0.043200
     83 H17        208.8870   164.1660   177.7050 hc         1 WYL       0.043200
     84 H18        207.2990   160.9320   176.2860 hc         1 WYL       0.043200
     85 H19        207.4060   162.6790   175.9900 hc         1 WYL       0.043200
     86 H20        208.8380   161.6510   175.7950 hc         1 WYL       0.043200
     87 H21        207.2400   160.3190   183.5790 h1         1 WYL       0.042700
     88 H22        208.9890   160.2660   183.2560 h1         1 WYL       0.042700
     89 H23        207.8150   162.4490   186.2880 hc         1 WYL       0.049700
     90 H24        206.4930   161.4020   185.8110 hc         1 WYL       0.049700
     91 H25        203.0700   157.3930   185.8250 hc         1 WYL       0.042033
     92 H26        202.9820   157.8790   187.5330 hc         1 WYL       0.042033
     93 H27        202.9560   159.1120   186.2510 hc         1 WYL       0.042033
     94 H28        207.9420   156.8080   188.1220 hc         1 WYL       0.056700
     95 H29        207.4050   156.7170   189.7910 hc         1 WYL       0.056700
     96 H30        207.5350   153.8220   183.2300 ha         1 WYL       0.154000
     97 H31        207.1160   152.9730   185.5630 h4         1 WYL       0.021100
     98 H32        208.1020   154.0580   179.0840 hc         1 WYL       0.052700
     99 H33        209.1940   154.7050   177.8530 hc         1 WYL       0.052700
    100 H34        209.6120   154.8390   179.5580 hc         1 WYL       0.052700
    101 H35        206.1160   157.0840   178.2630 hc         1 WYL       0.052700
    102 H36        206.1720   155.3330   178.2460 hc         1 WYL       0.052700
    103 H37        206.1710   156.1950   175.9210 hc         1 WYL       0.048700
    104 H38        207.7160   155.4210   176.2260 hc         1 WYL       0.048700
    105 H39        207.0850   158.4160   176.1600 hc         1 WYL       0.058200
    106 H40        208.2100   157.5370   175.1370 hc         1 WYL       0.058200
    107 H41        203.7700   159.6350   179.8350 h1         1 WYL       0.082700
    108 H42        202.1250   161.3530   177.8330 hc         1 WYL       0.073200
    109 H43        201.4930   160.4510   179.2100 hc         1 WYL       0.073200
    110 H44        201.9550   163.0700   179.5640 h1         1 WYL       0.055700
    111 H45        204.0550   163.2930   178.3920 h1         1 WYL       0.062200
    112 H46        204.6640   163.1450   180.0580 h1         1 WYL       0.062200
    113 H47        201.5520   155.7110   178.2560 h1         1 WYL       0.025700
    114 H48        202.6770   154.7530   177.2790 h1         1 WYL       0.025700
    115 H49        203.9990   156.7090   176.7270 h1         1 WYL       0.102700
    116 H50        198.7950   158.1050   175.4140 ha         1 WYL       0.119500
    117 H51        200.3490   157.6520   177.2820 ha         1 WYL       0.118500
    118 H52        203.4970   156.7760   174.4460 ha         1 WYL       0.118500
    119 H53        201.9320   157.2180   172.5800 ha         1 WYL       0.119500
    120 H54        197.8110   158.9980   169.8360 h5         1 WYL       0.054100
    121 H55        196.7830   155.6590   173.0130 hc         1 WYL       0.052700
    122 H56        198.2750   155.6250   173.9570 hc         1 WYL       0.052700
    123 H57        196.9890   156.7750   174.3700 hc         1 WYL       0.052700
    124 H59        212.5790   159.9580   178.1910 hn         1 WYL       0.488500
    125 H60        212.4860   159.1390   179.7230 hn         1 WYL       0.488500
    126 H61        202.8070   157.9620   178.9880 hn         1 WYL       0.319500
    127 H62        202.7620   162.7250   181.6540 ho         1 WYL       0.451000
    128 O58        203.4360   155.4440   179.1000 oh         1 WYL      -0.649000
    129 C15        208.4670   160.6090   185.3340 c3         1 WYL      -0.075400
    130 N40        212.0320   159.4060   178.8510 nv         1 WYL      -1.081000
    131 C39        210.5360   157.4390   180.4620 ch         1 WYL       0.351000
    132 H4         208.3930   159.5370   185.5550 hc         1 WYL       0.060700
    133 H5         209.4990   160.9000   185.5610 hc         1 WYL       0.060700
    134 H63        203.1380   154.6210   179.5460 ho         1 WYL       0.453000
@<TRIPOS>BOND
     1     1    51 2   
     2     1    58 1   
     3     2    12 2   
     4     2    58 1   
     5     2    69 1   
     6     3     4 1   
     7     3     5 1   
     8     3    58 1   
     9     3    70 1   
    10     4    61 1   
    11     4    66 2   
    12     5    13 1   
    13     5    14 1   
    14     5    71 1   
    15     6    16 1   
    16     6    50 1   
    17     6    72 1   
    18     6    73 1   
    19     7     9 1   
    20     7    50 1   
    21     7    74 1   
    22     7    75 1   
    23     8    18 1   
    24     8    50 1   
    25     8    76 1   
    26     8    77 1   
    27     9    17 1   
    28     9    52 1   
    29     9    78 1   
    30    10    18 1   
    31    10    52 1   
    32    10    79 1   
    33    10    80 1   
    34    11    52 1   
    35    11    53 ar  
    36    11    54 ar  
    37    12    51 1   
    38    12    62 1   
    39    13    81 1   
    40    13    82 1   
    41    13    83 1   
    42    14    84 1   
    43    14    85 1   
    44    14    86 1   
    45    15    62 1   
    46    15    87 1   
    47    15    88 1   
    48    15   129 1   
    49    16    89 1   
    50    16    90 1   
    51    16   129 1   
    52    17    91 1   
    53    17    92 1   
    54    17    93 1   
    55    18    94 1   
    56    18    95 1   
    57    19    20 ar  
    58    19    21 ar  
    59    19    96 1   
    60    20    54 ar  
    61    20    97 1   
    62    21    22 1   
    63    21    53 ar  
    64    22    55 2   
    65    22    56 1   
    66    23    27 1   
    67    23    56 2   
    68    23    63 1   
    69    24    27 1   
    70    24    98 1   
    71    24    99 1   
    72    24   100 1   
    73    25    26 2   
    74    25    67 1   
    75    25   130 1   
    76    26    32 1   
    77    26   131 1   
    78    27    28 1   
    79    27    32 1   
    80    28    29 1   
    81    28   101 1   
    82    28   102 1   
    83    29    30 1   
    84    29   103 1   
    85    29   104 1   
    86    30    31 1   
    87    30   105 1   
    88    30   106 1   
    89    31    32 2   
    90    31    67 1   
    91    33    34 1   
    92    33    35 1   
    93    33    61 1   
    94    33   107 1   
    95    34    59 1   
    96    34    64 2   
    97    35    36 1   
    98    35   108 1   
    99    35   109 1   
   100    36    37 1   
   101    36    65 1   
   102    36   110 1   
   103    37    61 1   
   104    37   111 1   
   105    37   112 1   
   106    38    39 1   
   107    38   113 1   
   108    38   114 1   
   109    38   128 1   
   110    39    42 1   
   111    39    59 1   
   112    39   115 1   
   113    40    41 ar  
   114    40    45 ar  
   115    40   116 1   
   116    41    42 ar  
   117    41   117 1   
   118    42    43 ar  
   119    43    44 ar  
   120    43   118 1   
   121    44    45 ar  
   122    44   119 1   
   123    45    47 1   
   124    46    60 2   
   125    46    68 1   
   126    46   120 1   
   127    47    48 2   
   128    47    68 1   
   129    48    49 1   
   130    48    60 1   
   131    49   121 1   
   132    49   122 1   
   133    49   123 1   
   134    55    63 1   
   135    57   131 3   
   136    59   126 1   
   137    65   127 1   
   138   124   130 1   
   139   125   130 1   
   140   128   134 1   
   141   129   132 1   
   142   129   133 1   
@<TRIPOS>SUBSTRUCTURE
     1 WYL         1 TEMP              0 ****  ****    0 ROOT
