@<TRIPOS>MOLECULE
WYL
  134   142     1     0     0
SMALL
abcg2


@<TRIPOS>ATOM
      1 N3         206.6230   164.1690   181.1940 nc         1 WYL      -0.218800
      2 C5         207.2670   162.0950   181.6670 cc         1 WYL      -0.264000
      3 C6         207.0020   162.7960   179.2420 c3         1 WYL       0.029300
      4 C7         205.6590   162.1650   178.8550 c          1 WYL       0.595100
      5 C10        208.1720   161.9390   178.7350 c3         1 WYL      -0.072700
      6 C17        206.5480   160.6290   188.0970 c3         1 WYL       0.172800
      7 C20        205.2990   158.5610   187.8000 c3         1 WYL       0.157800
      8 C21        207.1490   158.6470   189.3540 c3         1 WYL       0.176800
      9 C22        205.3830   157.3690   186.8420 c3         1 WYL       0.243500
     10 C24        206.6280   156.2130   188.7000 c3         1 WYL       0.239800
     11 C26        207.1820   155.7670   186.3670 ca         1 WYL       0.393900
     12 C1         207.0280   162.8070   182.8270 cd         1 WYL       0.440300
     13 C11        209.5090   162.5780   179.1040 c3         1 WYL      -0.095100
     14 C12        208.0310   161.7860   177.2120 c3         1 WYL      -0.095100
     15 C14        207.5350   161.1000   184.3670 c3         1 WYL       0.162600
     16 C16        206.4640   161.2160   186.6850 c3         1 WYL      -0.069400
     17 C18        204.0230   156.6930   186.6840 c3         1 WYL      -0.103100
     18 C23        207.6430   157.2080   189.2610 c3         1 WYL      -0.096400
     19 C29        208.7020   154.4130   184.5910 ca         1 WYL      -0.246000
     20 C30        208.8890   154.3030   185.9630 ca         1 WYL       0.144900
     21 C31        207.7000   155.2910   184.1960 ca         1 WYL       0.121000
     22 C34        207.4770   155.5290   182.7590 cc         1 WYL       0.500000
     23 C36        207.6830   155.3100   180.6820 cd         1 WYL       0.495300
     24 C37        209.1440   153.8740   179.2990 c3         1 WYL      -0.076100
     25 C41        209.7330   158.0390   177.9310 cc         1 WYL       0.266000
     26 C43        209.4280   157.0950   178.9080 cd         1 WYL      -0.165000
     27 C44        208.0060   154.9120   179.2700 c6         1 WYL      -0.009000
     28 C45        206.7220   154.3100   178.6300 c6         1 WYL      -0.066400
     29 C46        206.8490   154.1650   177.1150 c6         1 WYL      -0.071400
     30 C47        207.0280   155.5260   176.4370 c6         1 WYL      -0.003100
     31 C48        208.0180   156.3460   177.2020 cc         1 WYL      -0.188300
     32 C49        208.4450   156.1270   178.4690 cd         1 WYL      -0.032300
     33 C50        203.6440   162.1860   177.4920 c5         1 WYL       0.039700
     34 C51        203.9460   160.8940   176.7260 c          1 WYL       0.604100
     35 C52        203.0280   163.2560   176.5660 c5         1 WYL      -0.079400
     36 C55        203.6250   164.5700   177.0660 c5         1 WYL       0.153300
     37 C56        205.0530   164.1680   177.4380 c5         1 WYL       0.072000
     38 C59        203.5960   157.4890   177.3050 c3         1 WYL       0.148600
     39 C60        203.2000   158.5770   176.3140 c3         1 WYL       0.153000
     40 C61        199.9520   156.9560   175.0590 ca         1 WYL      -0.099000
     41 C62        201.1240   157.1640   175.7800 ca         1 WYL      -0.098000
     42 C63        201.9150   158.2890   175.5550 ca         1 WYL      -0.097300
     43 C64        201.5000   159.2010   174.5810 ca         1 WYL      -0.098000
     44 C65        200.3390   158.9940   173.8530 ca         1 WYL      -0.099000
     45 C66        199.5380   157.8640   174.0790 ca         1 WYL       0.000000
     46 C68        196.2120   157.9080   172.0910 cc         1 WYL       0.420300
     47 C70        198.3020   157.6520   173.3200 cc         1 WYL      -0.178000
     48 C71        197.7370   156.4860   172.8510 cd         1 WYL       0.301300
     49 C72        198.2900   155.1030   172.9970 c3         1 WYL      -0.121400
     50 N19        206.5940   159.1670   188.1070 n3         1 WYL      -0.734600
     51 N2         206.6380   164.0600   182.5030 nd         1 WYL      -0.365000
     52 N25        206.4010   156.4040   187.2690 nh         1 WYL      -0.764300
     53 N27        206.9370   155.9580   185.0570 nb         1 WYL      -0.230000
     54 N28        208.1630   154.9630   186.8490 nb         1 WYL      -0.244000
     55 N33        206.7390   156.5000   182.2850 nd         1 WYL      -0.322300
     56 N35        208.0770   154.7610   181.7900 nc         1 WYL      -0.710000
     57 N38        210.5690   157.2020   181.2040 n1         1 WYL      -0.479000
     58 N4         207.0080   162.9940   180.6870 na         1 WYL       0.132800
     59 N53        203.1070   159.8750   176.9700 ns         1 WYL      -0.481900
     60 N67        196.5600   156.6550   172.1560 nd         1 WYL      -0.637000
     61 N8         204.8870   162.8090   177.9680 n          1 WYL      -0.388800
     62 O13        207.1310   162.4600   184.1150 os         1 WYL      -0.438300
     63 O32        206.8720   156.3610   180.8960 os         1 WYL      -0.108700
     64 O54        204.8570   160.8520   175.9020 o          1 WYL      -0.614100
     65 O57        202.8740   164.9780   178.2120 oh         1 WYL      -0.656000
     66 O9         205.3400   161.0700   179.3290 o          1 WYL      -0.583100
     67 S42        208.7970   157.7520   176.4970 ss         1 WYL       0.174000
     68 S69        197.2940   158.9950   172.8660 ss         1 WYL      -0.042400
     69 H1         207.5760   161.0830   181.4710 h4         1 WYL       0.182000
     70 H2         207.1150   163.7910   178.8230 h1         1 WYL       0.086700
     71 H3         208.1020   160.9460   179.1860 hc         1 WYL       0.076700
     72 H6         207.4660   160.9880   188.5740 h1         1 WYL       0.031200
     73 H7         205.7090   161.0110   188.7020 h1         1 WYL       0.031200
     74 H8         204.6570   159.2930   187.3140 h1         1 WYL       0.037700
     75 H9         204.7850   158.2700   188.7250 h1         1 WYL       0.037700
     76 H10        207.9870   159.2820   189.6440 h1         1 WYL       0.027200
     77 H11        206.4020   158.7150   190.1670 h1         1 WYL       0.027200
     78 H12        205.7060   157.7490   185.8770 h1         1 WYL       0.090700
     79 H13        205.6690   156.3040   189.2110 h1         1 WYL       0.057200
     80 H14        206.9820   155.1990   188.8550 h1         1 WYL       0.057200
     81 H15        209.6150   162.7140   180.1800 hc         1 WYL       0.043200
     82 H16        210.3300   161.9450   178.7630 hc         1 WYL       0.043200
     83 H17        209.6120   163.5500   178.6210 hc         1 WYL       0.043200
     84 H18        207.1490   161.2070   176.9400 hc         1 WYL       0.043200
     85 H19        207.9620   162.7650   176.7320 hc         1 WYL       0.043200
     86 H20        208.9040   161.2790   176.8000 hc         1 WYL       0.043200
     87 H21        206.7580   160.4330   183.9810 h1         1 WYL       0.042700
     88 H22        208.4680   160.9030   183.8300 h1         1 WYL       0.042700
     89 H23        206.3080   162.2960   186.7540 hc         1 WYL       0.049700
     90 H24        205.5830   160.8180   186.1670 hc         1 WYL       0.049700
     91 H25        204.0790   155.8940   185.9440 hc         1 WYL       0.042033
     92 H26        203.6970   156.2620   187.6330 hc         1 WYL       0.042033
     93 H27        203.2720   157.4140   186.3590 hc         1 WYL       0.042033
     94 H28        208.5380   157.1650   188.6380 hc         1 WYL       0.056700
     95 H29        207.9330   156.8870   190.2670 hc         1 WYL       0.056700
     96 H30        209.3100   153.8740   183.8840 ha         1 WYL       0.154000
     97 H31        209.6680   153.6590   186.3600 h4         1 WYL       0.021100
     98 H32        208.8460   152.9920   179.8660 hc         1 WYL       0.052700
     99 H33        209.3810   153.5760   178.2780 hc         1 WYL       0.052700
    100 H34        210.0420   154.2900   179.7530 hc         1 WYL       0.052700
    101 H35        205.8740   154.9580   178.8590 hc         1 WYL       0.052700
    102 H36        206.5340   153.3410   179.0970 hc         1 WYL       0.052700
    103 H37        205.9520   153.6800   176.7240 hc         1 WYL       0.048700
    104 H38        207.6910   153.5180   176.8690 hc         1 WYL       0.048700
    105 H39        206.0730   156.0530   176.3910 hc         1 WYL       0.058200
    106 H40        207.3620   155.3950   175.4040 hc         1 WYL       0.058200
    107 H41        202.9990   161.9740   178.3430 h1         1 WYL       0.082700
    108 H42        203.3470   163.0880   175.5370 hc         1 WYL       0.073200
    109 H43        201.9410   163.2560   176.6010 hc         1 WYL       0.073200
    110 H44        203.6130   165.3490   176.3000 h1         1 WYL       0.055700
    111 H45        205.6930   164.1710   176.5530 h1         1 WYL       0.062200
    112 H46        205.4740   164.8400   178.1830 h1         1 WYL       0.062200
    113 H47        202.8530   157.4120   178.1050 h1         1 WYL       0.025700
    114 H48        203.6390   156.5320   176.7800 h1         1 WYL       0.025700
    115 H49        204.0110   158.6760   175.5930 h1         1 WYL       0.102700
    116 H50        199.3430   156.0900   175.2780 ha         1 WYL       0.119500
    117 H51        201.4010   156.4370   176.5320 ha         1 WYL       0.118500
    118 H52        202.0980   160.0840   174.3900 ha         1 WYL       0.118500
    119 H53        200.0520   159.7120   173.0940 ha         1 WYL       0.119500
    120 H54        195.3250   158.2680   171.5900 h5         1 WYL       0.054100
    121 H55        197.9670   154.4930   172.1560 hc         1 WYL       0.052700
    122 H56        199.3750   155.1100   173.0340 hc         1 WYL       0.052700
    123 H57        197.9290   154.6250   173.9110 hc         1 WYL       0.052700
    124 H59        210.6690   159.7590   177.3200 hn         1 WYL       0.488500
    125 H60        211.0590   159.2390   178.8920 hn         1 WYL       0.488500
    126 H61        202.4120   159.9870   177.6960 hn         1 WYL       0.319500
    127 H62        203.2930   165.7630   178.5930 ho         1 WYL       0.451000
    128 O58        204.8760   157.8180   177.8380 oh         1 WYL      -0.649000
    129 C15        207.7130   160.9080   185.8570 c3         1 WYL      -0.075400
    130 N40        210.6610   159.0180   177.9990 nv         1 WYL      -1.081000
    131 C39        210.0410   157.1450   180.1720 ch         1 WYL       0.351000
    132 H4         207.9970   159.8650   186.0140 hc         1 WYL       0.060700
    133 H5         208.5540   161.5180   186.2030 hc         1 WYL       0.060700
    134 H63        205.0850   157.1940   178.5440 ho         1 WYL       0.453000
@<TRIPOS>BOND
     1     1    51 2   
     2     1    58 1   
     3     2    12 2   
     4     2    58 1   
     5     2    69 1   
     6     3     4 1   
     7     3     5 1   
     8     3    58 1   
     9     3    70 1   
    10     4    61 1   
    11     4    66 2   
    12     5    13 1   
    13     5    14 1   
    14     5    71 1   
    15     6    16 1   
    16     6    50 1   
    17     6    72 1   
    18     6    73 1   
    19     7     9 1   
    20     7    50 1   
    21     7    74 1   
    22     7    75 1   
    23     8    18 1   
    24     8    50 1   
    25     8    76 1   
    26     8    77 1   
    27     9    17 1   
    28     9    52 1   
    29     9    78 1   
    30    10    18 1   
    31    10    52 1   
    32    10    79 1   
    33    10    80 1   
    34    11    52 1   
    35    11    53 ar  
    36    11    54 ar  
    37    12    51 1   
    38    12    62 1   
    39    13    81 1   
    40    13    82 1   
    41    13    83 1   
    42    14    84 1   
    43    14    85 1   
    44    14    86 1   
    45    15    62 1   
    46    15    87 1   
    47    15    88 1   
    48    15   129 1   
    49    16    89 1   
    50    16    90 1   
    51    16   129 1   
    52    17    91 1   
    53    17    92 1   
    54    17    93 1   
    55    18    94 1   
    56    18    95 1   
    57    19    20 ar  
    58    19    21 ar  
    59    19    96 1   
    60    20    54 ar  
    61    20    97 1   
    62    21    22 1   
    63    21    53 ar  
    64    22    55 2   
    65    22    56 1   
    66    23    27 1   
    67    23    56 2   
    68    23    63 1   
    69    24    27 1   
    70    24    98 1   
    71    24    99 1   
    72    24   100 1   
    73    25    26 2   
    74    25    67 1   
    75    25   130 1   
    76    26    32 1   
    77    26   131 1   
    78    27    28 1   
    79    27    32 1   
    80    28    29 1   
    81    28   101 1   
    82    28   102 1   
    83    29    30 1   
    84    29   103 1   
    85    29   104 1   
    86    30    31 1   
    87    30   105 1   
    88    30   106 1   
    89    31    32 2   
    90    31    67 1   
    91    33    34 1   
    92    33    35 1   
    93    33    61 1   
    94    33   107 1   
    95    34    59 1   
    96    34    64 2   
    97    35    36 1   
    98    35   108 1   
    99    35   109 1   
   100    36    37 1   
   101    36    65 1   
   102    36   110 1   
   103    37    61 1   
   104    37   111 1   
   105    37   112 1   
   106    38    39 1   
   107    38   113 1   
   108    38   114 1   
   109    38   128 1   
   110    39    42 1   
   111    39    59 1   
   112    39   115 1   
   113    40    41 ar  
   114    40    45 ar  
   115    40   116 1   
   116    41    42 ar  
   117    41   117 1   
   118    42    43 ar  
   119    43    44 ar  
   120    43   118 1   
   121    44    45 ar  
   122    44   119 1   
   123    45    47 1   
   124    46    60 2   
   125    46    68 1   
   126    46   120 1   
   127    47    48 2   
   128    47    68 1   
   129    48    49 1   
   130    48    60 1   
   131    49   121 1   
   132    49   122 1   
   133    49   123 1   
   134    55    63 1   
   135    57   131 3   
   136    59   126 1   
   137    65   127 1   
   138   124   130 1   
   139   125   130 1   
   140   128   134 1   
   141   129   132 1   
   142   129   133 1   
@<TRIPOS>SUBSTRUCTURE
     1 WYL         1 TEMP              0 ****  ****    0 ROOT
