@<TRIPOS>MOLECULE
WYN
   34    35     1     0     0
SMALL
No Charge or Current Charge


@<TRIPOS>ATOM
      1 N1          15.8600    10.8010   -20.4720 nb         1 WYN      -0.697000
      2 C4          17.7180    10.3170   -17.3660 c3         1 WYN      -0.096100
      3 C5          16.1730    12.0480   -20.9000 ca         1 WYN       0.586300
      4 C6          16.2330     9.7660   -21.2710 ca         1 WYN       0.271000
      5 C7          15.9440     8.4500   -20.8650 ca         1 WYN      -0.076000
      6 C8          16.3120     7.3500   -21.6580 ca         1 WYN      -0.091000
      7 C10         17.2750     8.8640   -23.2990 ca         1 WYN      -0.065000
      8 C1          14.9580    16.7200   -17.1870 c3         1 WYN      -0.096100
      9 C11         16.9160     9.9780   -22.5180 ca         1 WYN       0.204000
     10 C12         16.8410    12.2550   -22.1410 ca         1 WYN       0.320900
     11 C2          14.4160    15.3230   -17.5310 c3         1 WYN       0.020100
     12 C3          16.4170    11.1050   -17.1350 c3         1 WYN       0.020100
     13 C9          16.9780     7.5570   -22.8750 ca         1 WYN      -0.104000
     14 N2          17.2190    11.2290   -22.9570 nb         1 WYN      -0.605000
     15 O1          15.4830    14.5890   -18.1470 os         1 WYN      -0.392400
     16 O2          16.5400    12.3550   -17.8310 os         1 WYN      -0.392400
     17 O3          15.8200    13.1290   -20.1480 os         1 WYN      -0.581700
     18 P1          15.3060    13.0490   -18.6250 p5         1 WYN       1.287200
     19 S1          13.5120    12.3030   -18.3560 s          1 WYN      -0.625000
     20 H1          17.6760     9.3530   -16.8460 hc         1 WYN       0.053867
     21 H2          17.8730    10.1240   -18.4340 hc         1 WYN       0.053867
     22 H3          18.5800    10.8760   -16.9830 hc         1 WYN       0.053867
     23 H4          15.4290     8.2850   -19.9230 ha         1 WYN       0.139000
     24 H5          16.0810     6.3400   -21.3280 ha         1 WYN       0.122000
     25 H6          17.7920     9.0160   -24.2430 ha         1 WYN       0.135000
     26 H7          14.1770    17.3240   -16.7100 hc         1 WYN       0.053867
     27 H8          15.8050    16.6470   -16.4940 hc         1 WYN       0.053867
     28 H9          15.2900    17.2410   -18.0930 hc         1 WYN       0.053867
     29 H10         17.0770    13.2620   -22.4800 h4         1 WYN       0.045100
     30 H11         13.5610    15.4190   -18.2130 h1         1 WYN       0.056950
     31 H12         14.0770    14.8250   -16.6120 h1         1 WYN       0.056950
     32 H13         16.2720    11.2740   -16.0600 h1         1 WYN       0.056950
     33 H14         15.5710    10.5120   -17.5100 h1         1 WYN       0.056950
     34 H15         17.2630     6.7070   -23.4910 ha         1 WYN       0.122000
@<TRIPOS>BOND
     1     1     3 ar  
     2     1     4 ar  
     3     2    12 1   
     4     2    20 1   
     5     2    21 1   
     6     2    22 1   
     7     3    10 ar  
     8     3    17 1   
     9     4     5 ar  
    10     4     9 ar  
    11     5     6 ar  
    12     5    23 1   
    13     6    13 ar  
    14     6    24 1   
    15     7     9 ar  
    16     7    13 ar  
    17     7    25 1   
    18     8    11 1   
    19     8    26 1   
    20     8    27 1   
    21     8    28 1   
    22     9    14 ar  
    23    10    14 ar  
    24    10    29 1   
    25    11    15 1   
    26    11    30 1   
    27    11    31 1   
    28    12    16 1   
    29    12    32 1   
    30    12    33 1   
    31    13    34 1   
    32    15    18 1   
    33    16    18 1   
    34    17    18 1   
    35    18    19 2   
@<TRIPOS>SUBSTRUCTURE
     1 WYN         1 TEMP              0 ****  ****    0 ROOT
