@<TRIPOS>MOLECULE
WYN
   34    35     1     0     0
SMALL
abcg2


@<TRIPOS>ATOM
      1 N1          16.3150    10.5820   -20.5170 nb         1 WYN      -0.697000
      2 C4          17.8420    10.6720   -15.9230 c3         1 WYN      -0.096100
      3 C5          16.2750    11.8310   -20.8520 ca         1 WYN       0.586300
      4 C6          16.3890     9.6740   -21.5330 ca         1 WYN       0.271000
      5 C7          16.4310     8.2950   -21.2450 ca         1 WYN      -0.076000
      6 C8          16.5060     7.3860   -22.2720 ca         1 WYN      -0.091000
      7 C10         16.5040     9.1550   -23.9220 ca         1 WYN      -0.065000
      8 C1          14.8700    16.3350   -17.3720 c3         1 WYN      -0.096100
      9 C11         16.4270    10.1100   -22.8870 ca         1 WYN       0.204000
     10 C12         16.3140    12.2860   -22.1990 ca         1 WYN       0.320900
     11 C2          14.7130    15.1630   -18.3070 c3         1 WYN       0.020100
     12 C3          16.5940    11.4430   -16.2750 c3         1 WYN       0.020100
     13 C9          16.5430     7.8160   -23.6160 ca         1 WYN      -0.104000
     14 N2          16.3900    11.4410   -23.1890 nb         1 WYN      -0.605000
     15 O1          15.6690    14.1340   -17.9080 os         1 WYN      -0.392400
     16 O2          16.7490    11.9410   -17.6400 os         1 WYN      -0.392400
     17 O3          16.2100    12.8050   -19.8950 os         1 WYN      -0.581700
     18 P1          15.5710    12.6430   -18.4120 p5         1 WYN       1.287200
     19 S1          13.8250    11.8230   -18.3500 s          1 WYN      -0.625000
     20 H1          17.7510    10.2940   -14.9030 hc         1 WYN       0.053867
     21 H2          17.9740     9.8240   -16.5960 hc         1 WYN       0.053867
     22 H3          18.7240    11.3110   -15.9780 hc         1 WYN       0.053867
     23 H4          16.4010     7.9810   -20.2100 ha         1 WYN       0.139000
     24 H5          16.5380     6.3270   -22.0520 ha         1 WYN       0.122000
     25 H6          16.5310     9.5040   -24.9460 ha         1 WYN       0.135000
     26 H7          14.1720    17.1220   -17.6660 hc         1 WYN       0.053867
     27 H8          14.6490    16.0430   -16.3440 hc         1 WYN       0.053867
     28 H9          15.8830    16.7380   -17.4160 hc         1 WYN       0.053867
     29 H10         16.2790    13.3490   -22.4100 h4         1 WYN       0.045100
     30 H11         14.9340    15.4340   -19.3400 h1         1 WYN       0.056950
     31 H12         13.7120    14.7360   -18.2560 h1         1 WYN       0.056950
     32 H13         16.4470    12.3010   -15.6190 h1         1 WYN       0.056950
     33 H14         15.7060    10.8120   -16.2450 h1         1 WYN       0.056950
     34 H15         16.6020     7.0820   -24.4090 ha         1 WYN       0.122000
@<TRIPOS>BOND
     1     1     3 ar  
     2     1     4 ar  
     3     2    12 1   
     4     2    20 1   
     5     2    21 1   
     6     2    22 1   
     7     3    10 ar  
     8     3    17 1   
     9     4     5 ar  
    10     4     9 ar  
    11     5     6 ar  
    12     5    23 1   
    13     6    13 ar  
    14     6    24 1   
    15     7     9 ar  
    16     7    13 ar  
    17     7    25 1   
    18     8    11 1   
    19     8    26 1   
    20     8    27 1   
    21     8    28 1   
    22     9    14 ar  
    23    10    14 ar  
    24    10    29 1   
    25    11    15 1   
    26    11    30 1   
    27    11    31 1   
    28    12    16 1   
    29    12    32 1   
    30    12    33 1   
    31    13    34 1   
    32    15    18 1   
    33    16    18 1   
    34    17    18 1   
    35    18    19 2   
@<TRIPOS>SUBSTRUCTURE
     1 WYN         1 TEMP              0 ****  ****    0 ROOT
