@<TRIPOS>MOLECULE
WYO
   34    35     1     0     0
SMALL
No Charge or Current Charge


@<TRIPOS>ATOM
      1 C01         10.9170    -4.0810   -20.1110 c6         1 WYO      -0.078400
      2 C02         11.9380    -4.3920   -21.2340 c6         1 WYO      -0.070400
      3 C04         13.3120    -5.8570   -19.6130 c6         1 WYO      -0.043700
      4 C05         12.2490    -5.5640   -18.4950 c6         1 WYO      -0.182700
      5 C06         11.5630    -4.1810   -18.7060 c6         1 WYO      -0.055400
      6 C07         12.7780    -5.7540   -17.0480 c          1 WYO       0.704000
      7 O08         13.5590    -4.9320   -16.5940 o          1 WYO      -0.732500
      8 C10         14.5920    -4.9620   -19.5250 c3         1 WYO       0.162600
      9 C13         16.7100    -4.6830   -20.7620 ca         1 WYO       0.185100
     10 C15         18.3940    -3.0260   -20.1570 ca         1 WYO       0.168000
     11 C16         19.2020    -3.4480   -21.2350 ca         1 WYO       0.064000
     12 C17         18.7600    -4.4870   -22.0710 ca         1 WYO      -0.067000
     13 C18         17.5170    -5.1010   -21.8320 ca         1 WYO      -0.155000
     14 C03         12.6160    -5.7680   -21.0080 c6         1 WYO      -0.072400
     15 O09         12.3310    -6.6870   -16.3970 o          1 WYO      -0.732500
     16 C14         17.1530    -3.6400   -19.9210 ca         1 WYO      -0.188000
     17 Cl19        18.9160    -1.7250   -19.0860 cl         1 WYO      -0.198000
     18 Cl20        20.7660    -2.6960   -21.5570 cl         1 WYO      -0.213000
     19 O21         15.5020    -5.3220   -20.5810 os         1 WYO      -0.354100
     20 H22         10.4980    -3.0760   -20.2570 hc         1 WYO       0.019700
     21 H23         10.0740    -4.7820   -20.1780 hc         1 WYO       0.019700
     22 H25         12.6960    -3.5980   -21.2800 hc         1 WYO       0.021200
     23 H24         11.4280    -4.3870   -22.2070 hc         1 WYO       0.021200
     24 H12         13.6690    -6.8880   -19.4780 hc         1 WYO       0.073700
     25 H11         11.4760    -6.3350   -18.6220 hc         1 WYO       0.038700
     26 H28         12.2880    -3.3680   -18.5720 hc         1 WYO       0.042200
     27 H29         10.7900    -4.0320   -17.9400 hc         1 WYO       0.042200
     28 H31         15.0780    -5.1170   -18.5550 h1         1 WYO       0.057200
     29 H32         14.3080    -3.9050   -19.6050 h1         1 WYO       0.057200
     30 H34         19.3790    -4.8160   -22.9020 ha         1 WYO       0.120000
     31 H35         17.1760    -5.9040   -22.4800 ha         1 WYO       0.130000
     32 H27         11.8580    -6.5590   -21.0860 hc         1 WYO       0.029700
     33 H26         13.3340    -5.9660   -21.8150 hc         1 WYO       0.029700
     34 H33         16.5540    -3.2950   -19.0840 ha         1 WYO       0.154000
@<TRIPOS>BOND
     1     1     2 1   
     2     1     5 1   
     3     1    20 1   
     4     1    21 1   
     5     2    14 1   
     6     2    22 1   
     7     2    23 1   
     8     3     4 1   
     9     3     8 1   
    10     3    14 1   
    11     3    24 1   
    12     4     5 1   
    13     4     6 1   
    14     4    25 1   
    15     5    26 1   
    16     5    27 1   
    17     6     7 1   
    18     6    15 1   
    19     8    19 1   
    20     8    28 1   
    21     8    29 1   
    22     9    13 ar  
    23     9    16 ar  
    24     9    19 1   
    25    10    11 ar  
    26    10    16 ar  
    27    10    17 1   
    28    11    12 ar  
    29    11    18 1   
    30    12    13 ar  
    31    12    30 1   
    32    13    31 1   
    33    14    32 1   
    34    14    33 1   
    35    16    34 1   
@<TRIPOS>SUBSTRUCTURE
     1 WYO         1 TEMP              0 ****  ****    0 ROOT
