@<TRIPOS>MOLECULE
WYO
   34    35     1     0     0
SMALL
abcg2


@<TRIPOS>ATOM
      1 C01         10.8550    -4.1000   -20.0120 c6         1 WYO      -0.078400
      2 C02         11.7870    -4.3340   -21.2020 c6         1 WYO      -0.070400
      3 C04         13.2970    -5.7820   -19.7330 c6         1 WYO      -0.043700
      4 C05         12.3470    -5.5150   -18.5390 c6         1 WYO      -0.182700
      5 C06         11.6130    -4.1800   -18.6850 c6         1 WYO      -0.055400
      6 C07         13.0980    -5.6980   -17.1990 c          1 WYO       0.704000
      7 O08         13.3140    -4.6830   -16.4880 o          1 WYO      -0.732500
      8 C10         14.5190    -4.8780   -19.6790 c3         1 WYO       0.162600
      9 C13         16.6560    -4.7250   -20.7540 ca         1 WYO       0.185100
     10 C15         18.2890    -3.0640   -20.1400 ca         1 WYO       0.168000
     11 C16         19.1880    -3.5810   -21.0660 ca         1 WYO       0.064000
     12 C17         18.8080    -4.6760   -21.8400 ca         1 WYO      -0.067000
     13 C18         17.5580    -5.2440   -21.6900 ca         1 WYO      -0.155000
     14 C03         12.5360    -5.6620   -21.0630 c6         1 WYO      -0.072400
     15 O09         13.4620    -6.8740   -16.9290 o          1 WYO      -0.732500
     16 C14         17.0260    -3.6270   -19.9780 ca         1 WYO      -0.188000
     17 CL19        18.7080    -1.6940   -19.1510 cl         1 WYO      -0.198000
     18 CL20        20.7760    -2.8990   -21.2800 cl         1 WYO      -0.213000
     19 O21         15.4580    -5.3420   -20.6660 os         1 WYO      -0.354100
     20 H22         10.3580    -3.1300   -20.1050 hc         1 WYO       0.019700
     21 H23         10.0660    -4.8610   -20.0220 hc         1 WYO       0.019700
     22 H25         12.5020    -3.5070   -21.2670 hc         1 WYO       0.021200
     23 H24         11.2200    -4.3280   -22.1370 hc         1 WYO       0.021200
     24 H12         13.6640    -6.8060   -19.6320 hc         1 WYO       0.073700
     25 H11         11.5990    -6.3140   -18.5770 hc         1 WYO       0.038700
     26 H28         12.3270    -3.3540   -18.6200 hc         1 WYO       0.042200
     27 H29         10.9240    -4.0540   -17.8470 hc         1 WYO       0.042200
     28 H31         14.9900    -4.9280   -18.6950 h1         1 WYO       0.057200
     29 H32         14.2690    -3.8360   -19.8870 h1         1 WYO       0.057200
     30 H34         19.5060    -5.0800   -22.5610 ha         1 WYO       0.120000
     31 H35         17.2660    -6.0960   -22.2900 ha         1 WYO       0.130000
     32 H27         11.8120    -6.4810   -21.1130 hc         1 WYO       0.029700
     33 H26         13.2260    -5.7990   -21.8980 hc         1 WYO       0.029700
     34 H33         16.3570    -3.2000   -19.2480 ha         1 WYO       0.154000
@<TRIPOS>BOND
     1     1     2 1   
     2     1     5 1   
     3     1    20 1   
     4     1    21 1   
     5     2    14 1   
     6     2    22 1   
     7     2    23 1   
     8     3     4 1   
     9     3     8 1   
    10     3    14 1   
    11     3    24 1   
    12     4     5 1   
    13     4     6 1   
    14     4    25 1   
    15     5    26 1   
    16     5    27 1   
    17     6     7 1   
    18     6    15 1   
    19     8    19 1   
    20     8    28 1   
    21     8    29 1   
    22     9    13 ar  
    23     9    16 ar  
    24     9    19 1   
    25    10    11 ar  
    26    10    16 ar  
    27    10    17 1   
    28    11    12 ar  
    29    11    18 1   
    30    12    13 ar  
    31    12    30 1   
    32    13    31 1   
    33    14    32 1   
    34    14    33 1   
    35    16    34 1   
@<TRIPOS>SUBSTRUCTURE
     1 WYO         1 TEMP              0 ****  ****    0 ROOT
