@<TRIPOS>MOLECULE
WYQ
   60    62     1     0     0
SMALL
bcc


@<TRIPOS>ATOM
      1 C16          6.1280     2.9110    -2.1210 c3         1 WYQ      -0.108100
      2 C15          4.7640     2.4400    -1.6650 c3         1 WYQ       0.170100
      3 C17          3.7980     2.2400    -2.8160 c3         1 WYQ      -0.108100
      4 O6           4.9840     1.1820    -0.9750 os         1 WYQ      -0.426900
      5 C14          4.0930     0.7890    -0.0890 c          1 WYQ       0.789100
      6 O5           3.0970     1.3820     0.2420 o          1 WYQ      -0.573000
      7 N5           4.4590    -0.4310     0.4340 ns         1 WYQ      -0.643300
      8 S1           3.5180    -1.2640     1.5440 sy         1 WYQ       1.352900
      9 O4           4.2480    -2.4990     1.7490 o          1 WYQ      -0.593300
     10 O3           3.2330    -0.3900     2.6610 o          1 WYQ      -0.593300
     11 C8           2.0270    -1.5990     0.6830 ca         1 WYQ      -0.361500
     12 C7           0.9630    -0.7150     0.7810 ca         1 WYQ       0.048000
     13 C9           1.9370    -2.7230    -0.1240 ca         1 WYQ       0.030000
     14 C10          0.7800    -2.9620    -0.8420 ca         1 WYQ      -0.262000
     15 C11         -0.2940    -2.0710    -0.7740 ca         1 WYQ       0.255100
     16 O2          -1.4150    -2.2090    -1.4680 os         1 WYQ      -0.293900
     17 C12         -1.5930    -3.3450    -2.3160 c3         1 WYQ       0.140400
     18 C13         -2.9460    -3.2230    -2.9730 c3         1 WYQ      -0.097100
     19 C6          -0.1940    -0.9350     0.0540 ca         1 WYQ      -0.211900
     20 C5          -1.2900     0.0500     0.1370 cc         1 WYQ       0.531500
     21 N4          -0.9180     1.3580    -0.0670 ns         1 WYQ      -0.490400
     22 C4          -1.7480     2.4670    -0.0010 c          1 WYQ       0.747100
     23 O1          -1.3330     3.5970    -0.1800 o          1 WYQ      -0.617500
     24 N3          -2.4940    -0.3100     0.4030 nd         1 WYQ      -0.545100
     25 C2          -3.4000     0.7040     0.4560 cd         1 WYQ       0.006100
     26 C3          -3.0920     2.0450     0.2830 cc         1 WYQ      -0.211900
     27 N2          -4.2420     2.7340     0.4220 na         1 WYQ       0.148400
     28 C18         -4.4750     4.1490     0.2480 c3         1 WYQ       0.044600
     29 N1          -5.2600     1.9120     0.6560 nc         1 WYQ      -0.494800
     30 C1          -4.7920     0.6780     0.6910 cd         1 WYQ       0.343600
     31 C19         -5.6560    -0.5130     0.9240 c3         1 WYQ      -0.095700
     32 C20         -5.6850    -1.4590    -0.2780 c3         1 WYQ      -0.077400
     33 C21         -6.5340    -2.6950    -0.0240 c3         1 WYQ      -0.088100
     34 H1           6.0280     3.8770    -2.6150 hc         1 WYQ       0.050700
     35 H2           6.8090     3.0380    -1.2800 hc         1 WYQ       0.050700
     36 H3           6.5750     2.2150    -2.8330 hc         1 WYQ       0.050700
     37 H4           4.3510     3.1560    -0.9530 h1         1 WYQ       0.071700
     38 H5           2.8220     1.8910    -2.4770 hc         1 WYQ       0.050700
     39 H6           3.6490     3.1910    -3.3270 hc         1 WYQ       0.050700
     40 H7           4.1920     1.5270    -3.5420 hc         1 WYQ       0.050700
     41 H8           5.2510    -0.9360     0.0540 hn         1 WYQ       0.356500
     42 H9           1.0220     0.1440     1.4350 ha         1 WYQ       0.176000
     43 H10          2.7580    -3.4220    -0.2080 ha         1 WYQ       0.153000
     44 H11          0.7370    -3.8440    -1.4650 ha         1 WYQ       0.145000
     45 H12         -0.8010    -3.3750    -3.0700 h1         1 WYQ       0.040200
     46 H13         -1.5310    -4.2620    -1.7230 h1         1 WYQ       0.040200
     47 H14         -3.7490    -3.2150    -2.2370 hc         1 WYQ       0.053700
     48 H15         -3.0150    -2.3190    -3.5780 hc         1 WYQ       0.053700
     49 H16         -3.1000    -4.0790    -3.6290 hc         1 WYQ       0.053700
     50 H17          0.0480     1.5470    -0.3080 hn         1 WYQ       0.339500
     51 H18         -4.6610     4.3860    -0.7990 h1         1 WYQ       0.065367
     52 H19         -5.3420     4.4310     0.8380 h1         1 WYQ       0.065367
     53 H20         -3.6120     4.7110     0.5910 h1         1 WYQ       0.065367
     54 H21         -5.2880    -1.0580     1.7990 hc         1 WYQ       0.057200
     55 H22         -6.6680    -0.1800     1.1650 hc         1 WYQ       0.057200
     56 H23         -6.0660    -0.9210    -1.1510 hc         1 WYQ       0.047700
     57 H24         -4.6620    -1.7570    -0.5220 hc         1 WYQ       0.047700
     58 H25         -6.1590    -3.2640     0.8290 hc         1 WYQ       0.030700
     59 H26         -7.5710    -2.4280     0.1880 hc         1 WYQ       0.030700
     60 H27         -6.5330    -3.3570    -0.8900 hc         1 WYQ       0.030700
@<TRIPOS>BOND
     1     1     2 1   
     2     1    34 1   
     3     1    35 1   
     4     1    36 1   
     5     2     3 1   
     6     2     4 1   
     7     2    37 1   
     8     3    38 1   
     9     3    39 1   
    10     3    40 1   
    11     4     5 1   
    12     5     6 2   
    13     5     7 1   
    14     7     8 1   
    15     7    41 1   
    16     8     9 2   
    17     8    10 2   
    18     8    11 1   
    19    11    12 ar  
    20    11    13 ar  
    21    12    19 ar  
    22    12    42 1   
    23    13    14 ar  
    24    13    43 1   
    25    14    15 ar  
    26    14    44 1   
    27    15    16 1   
    28    15    19 ar  
    29    16    17 1   
    30    17    18 1   
    31    17    45 1   
    32    17    46 1   
    33    18    47 1   
    34    18    48 1   
    35    18    49 1   
    36    19    20 1   
    37    20    21 1   
    38    20    24 2   
    39    21    22 1   
    40    21    50 1   
    41    22    23 2   
    42    22    26 1   
    43    24    25 1   
    44    25    26 2   
    45    25    30 1   
    46    26    27 1   
    47    27    28 1   
    48    27    29 1   
    49    28    51 1   
    50    28    52 1   
    51    28    53 1   
    52    29    30 2   
    53    30    31 1   
    54    31    32 1   
    55    31    54 1   
    56    31    55 1   
    57    32    33 1   
    58    32    56 1   
    59    32    57 1   
    60    33    58 1   
    61    33    59 1   
    62    33    60 1   
@<TRIPOS>SUBSTRUCTURE
     1 WYQ         1 TEMP              0 ****  ****    0 ROOT
