@<TRIPOS>MOLECULE
WYQ
   60    62     1     0     0
SMALL
No Charge or Current Charge


@<TRIPOS>ATOM
      1 C16          6.4900     2.8670    -2.1140 c3         1 WYQ      -0.108100
      2 C15          5.0730     2.4870    -1.6460 c3         1 WYQ       0.193300
      3 C17          4.1180     2.2160    -2.8300 c3         1 WYQ      -0.108100
      4 O6           5.2060     1.2790    -0.8760 os         1 WYQ      -0.450100
      5 C14          4.1910     0.9130    -0.0430 c          1 WYQ       0.673100
      6 O5           3.1770     1.5550     0.1740 o          1 WYQ      -0.524000
      7 N5           4.5030    -0.2740     0.5040 ns         1 WYQ      -0.576300
      8 S1           3.5750    -1.1820     1.5490 sy         1 WYQ       1.211300
      9 O4           4.3130    -2.4350     1.7350 o          1 WYQ      -0.522500
     10 O3           3.2490    -0.3050     2.6790 o          1 WYQ      -0.522500
     11 C8           2.0650    -1.5190     0.6340 ca         1 WYQ      -0.361500
     12 C7           0.9790    -0.6290     0.7230 ca         1 WYQ       0.066000
     13 C9           1.9780    -2.6570    -0.1860 ca         1 WYQ       0.048000
     14 C10          0.8030    -2.9010    -0.9130 ca         1 WYQ      -0.244000
     15 C11         -0.2880    -2.0090    -0.8360 ca         1 WYQ       0.255100
     16 O2          -1.4390    -2.2110    -1.5740 os         1 WYQ      -0.317100
     17 C12         -1.6300    -3.3600    -2.4130 c3         1 WYQ       0.163600
     18 C13         -3.0360    -3.2540    -3.0250 c3         1 WYQ      -0.097100
     19 C6          -0.1950    -0.8600    -0.0220 ca         1 WYQ      -0.211900
     20 C5          -1.3040     0.0800     0.0890 cc         1 WYQ       0.531500
     21 N4          -0.9730     1.3930    -0.1460 ns         1 WYQ      -0.423400
     22 C4          -1.8430     2.4260    -0.0940 c          1 WYQ       0.604600
     23 O1          -1.5170     3.5810    -0.3150 o          1 WYQ      -0.542000
     24 N3          -2.5310    -0.3400     0.4140 nd         1 WYQ      -0.545100
     25 C2          -3.4920     0.6700     0.4810 cd         1 WYQ       0.071400
     26 C3          -3.1800     1.9710     0.2460 cc         1 WYQ      -0.262600
     27 N2          -4.3950     2.6330     0.4080 na         1 WYQ       0.169800
     28 C18         -4.6290     4.0770     0.2670 c3         1 WYQ       0.073900
     29 N1          -5.4490     1.7880     0.7300 nc         1 WYQ      -0.494800
     30 C1          -4.8750     0.5950     0.7690 cd         1 WYQ       0.278300
     31 C19         -5.6720    -0.6480     1.0720 c3         1 WYQ      -0.095700
     32 C20         -6.0280    -1.4460    -0.2020 c3         1 WYQ      -0.077400
     33 C21         -6.8090    -2.7410     0.0910 c3         1 WYQ      -0.088100
     34 H1           6.4630     3.7860    -2.7130 hc         1 WYQ       0.050700
     35 H2           7.1440     3.0420    -1.2520 hc         1 WYQ       0.050700
     36 H3           6.9260     2.0690    -2.7260 hc         1 WYQ       0.050700
     37 H4           4.6790     3.3100    -1.0320 h1         1 WYQ       0.071700
     38 H5           3.1020     2.0000    -2.4810 hc         1 WYQ       0.050700
     39 H6           4.0650     3.0930    -3.4870 hc         1 WYQ       0.050700
     40 H7           4.4680     1.3640    -3.4250 hc         1 WYQ       0.050700
     41 H8           5.3530    -0.7350     0.2380 hn         1 WYQ       0.356500
     42 H9           1.0440     0.2480     1.3680 ha         1 WYQ       0.158000
     43 H10          2.8130    -3.3520    -0.2690 ha         1 WYQ       0.135000
     44 H11          0.7650    -3.7850    -1.5410 ha         1 WYQ       0.127000
     45 H12         -0.8820    -3.3850    -3.2170 h1         1 WYQ       0.040200
     46 H13         -1.5560    -4.2870    -1.8300 h1         1 WYQ       0.040200
     47 H14         -3.8000    -3.2600    -2.2390 hc         1 WYQ       0.053700
     48 H15         -3.1360    -2.3300    -3.6060 hc         1 WYQ       0.053700
     49 H16         -3.2240    -4.1030    -3.6930 hc         1 WYQ       0.053700
     50 H17         -0.0230     1.6230    -0.3950 hn         1 WYQ       0.339500
     51 H18         -4.3700     4.3900    -0.7520 h1         1 WYQ       0.065367
     52 H19         -5.6820     4.3100     0.4600 h1         1 WYQ       0.065367
     53 H20         -4.0010     4.6190     0.9840 h1         1 WYQ       0.065367
     54 H21         -5.0960    -1.2900     1.7490 hc         1 WYQ       0.057200
     55 H22         -6.5950    -0.3850     1.6040 hc         1 WYQ       0.057200
     56 H23         -6.6210    -0.8120    -0.8730 hc         1 WYQ       0.047700
     57 H24         -5.1050    -1.7000    -0.7380 hc         1 WYQ       0.047700
     58 H25         -6.2220    -3.4120     0.7300 hc         1 WYQ       0.030700
     59 H26         -7.7550    -2.5180     0.5970 hc         1 WYQ       0.030700
     60 H27         -7.0360    -3.2690    -0.8430 hc         1 WYQ       0.030700
@<TRIPOS>BOND
     1     1     2 1   
     2     1    34 1   
     3     1    35 1   
     4     1    36 1   
     5     2     3 1   
     6     2     4 1   
     7     2    37 1   
     8     3    38 1   
     9     3    39 1   
    10     3    40 1   
    11     4     5 1   
    12     5     6 2   
    13     5     7 1   
    14     7     8 1   
    15     7    41 1   
    16     8     9 2   
    17     8    10 2   
    18     8    11 1   
    19    11    12 ar  
    20    11    13 ar  
    21    12    19 ar  
    22    12    42 1   
    23    13    14 ar  
    24    13    43 1   
    25    14    15 ar  
    26    14    44 1   
    27    15    16 1   
    28    15    19 ar  
    29    16    17 1   
    30    17    18 1   
    31    17    45 1   
    32    17    46 1   
    33    18    47 1   
    34    18    48 1   
    35    18    49 1   
    36    19    20 1   
    37    20    21 1   
    38    20    24 2   
    39    21    22 1   
    40    21    50 1   
    41    22    23 2   
    42    22    26 1   
    43    24    25 1   
    44    25    26 2   
    45    25    30 1   
    46    26    27 1   
    47    27    28 1   
    48    27    29 1   
    49    28    51 1   
    50    28    52 1   
    51    28    53 1   
    52    29    30 2   
    53    30    31 1   
    54    31    32 1   
    55    31    54 1   
    56    31    55 1   
    57    32    33 1   
    58    32    56 1   
    59    32    57 1   
    60    33    58 1   
    61    33    59 1   
    62    33    60 1   
@<TRIPOS>SUBSTRUCTURE
     1 WYQ         1 TEMP              0 ****  ****    0 ROOT
