@<TRIPOS>MOLECULE
WYS
   32    32     1     0     0
SMALL
abcg2


@<TRIPOS>ATOM
      1 N1         -14.8500    -9.0410   -24.2550 no         1 WYS       0.677200
      2 C4         -15.2850   -16.7180   -18.3230 c3         1 WYS      -0.097600
      3 C5         -15.4490   -11.8410   -21.1840 ca         1 WYS       0.073000
      4 C6         -15.4670   -10.4830   -20.8780 ca         1 WYS      -0.145500
      5 C7         -15.2670    -9.5610   -21.8900 ca         1 WYS      -0.014000
      6 C8         -15.0610   -10.0150   -23.1880 ca         1 WYS      -0.185200
      7 C10        -15.2440   -12.2900   -22.4850 ca         1 WYS      -0.145500
      8 C1         -17.2040   -10.8430   -16.1380 c3         1 WYS      -0.097600
      9 C2         -16.0240   -11.6940   -16.5340 c3         1 WYS       0.021600
     10 C3         -14.5790   -15.4530   -18.7410 c3         1 WYS       0.021600
     11 C9         -15.0510   -11.3700   -23.5000 ca         1 WYS      -0.014000
     12 O1         -16.1620   -12.0130   -17.9530 os         1 WYS      -0.394900
     13 O2         -15.4060   -14.3230   -18.3230 os         1 WYS      -0.394900
     14 O4         -14.8390    -7.8510   -23.9620 o          1 WYS      -0.393000
     15 O5         -14.6940    -9.4560   -25.3980 o          1 WYS      -0.393000
     16 P1         -15.0720   -12.8400   -18.7340 p5         1 WYS       1.272200
     17 S1         -13.2360   -12.2670   -18.5800 s          1 WYS      -0.622000
     18 H1         -14.6780   -17.5790   -18.6120 hc         1 WYS       0.055533
     19 H2         -15.4270   -16.7440   -17.2420 hc         1 WYS       0.055533
     20 H3         -16.2570   -16.8010   -18.8110 hc         1 WYS       0.055533
     21 H4         -15.6400   -10.1520   -19.8640 ha         1 WYS       0.142000
     22 H5         -15.2750    -8.5030   -21.6790 ha         1 WYS       0.159000
     23 H6         -15.2370   -13.3520   -22.6870 ha         1 WYS       0.142000
     24 H7         -17.1230   -10.5910   -15.0790 hc         1 WYS       0.055533
     25 H8         -17.2240    -9.9160   -16.7140 hc         1 WYS       0.055533
     26 H9         -18.1410   -11.3790   -16.2950 hc         1 WYS       0.055533
     27 H10        -15.9960   -12.6320   -15.9790 h1         1 WYS       0.056700
     28 H11        -15.0780   -11.1690   -16.3980 h1         1 WYS       0.056700
     29 H12        -14.4500   -15.4020   -19.8230 h1         1 WYS       0.056700
     30 H13        -13.6060   -15.3480   -18.2610 h1         1 WYS       0.056700
     31 H14        -14.8890   -11.6940   -24.5160 ha         1 WYS       0.159000
     32 O3         -15.6750   -12.8050   -20.2310 os         1 WYS      -0.329400
@<TRIPOS>BOND
     1     1     6 1   
     2     1    14 1   
     3     1    15 1   
     4     2    10 1   
     5     2    18 1   
     6     2    19 1   
     7     2    20 1   
     8     3     4 ar  
     9     3     7 ar  
    10     3    32 1   
    11     4     5 ar  
    12     4    21 1   
    13     5     6 ar  
    14     5    22 1   
    15     6    11 ar  
    16     7    11 ar  
    17     7    23 1   
    18     8     9 1   
    19     8    24 1   
    20     8    25 1   
    21     8    26 1   
    22     9    12 1   
    23     9    27 1   
    24     9    28 1   
    25    10    13 1   
    26    10    29 1   
    27    10    30 1   
    28    11    31 1   
    29    12    16 1   
    30    13    16 1   
    31    16    17 2   
    32    16    32 1   
@<TRIPOS>SUBSTRUCTURE
     1 WYS         1 TEMP              0 ****  ****    0 ROOT
