@<TRIPOS>MOLECULE
WYS
   32    32     1     0     0
SMALL
No Charge or Current Charge


@<TRIPOS>ATOM
      1 N1         -15.3680    -8.4560   -23.8800 no         1 WYS       0.677200
      2 C4         -15.3600   -17.0370   -17.8870 c3         1 WYS      -0.097600
      3 C5         -15.1670   -11.9480   -21.3290 ca         1 WYS       0.073000
      4 C6         -14.8760   -10.6710   -20.8060 ca         1 WYS      -0.145500
      5 C7         -14.9420    -9.5360   -21.6340 ca         1 WYS      -0.014000
      6 C8         -15.2970    -9.6630   -22.9970 ca         1 WYS      -0.185200
      7 C10        -15.5140   -12.0770   -22.6820 ca         1 WYS      -0.145500
      8 C1         -17.1730   -10.7830   -16.9430 c3         1 WYS      -0.097600
      9 C2         -15.8600   -11.5460   -17.1810 c3         1 WYS       0.021600
     10 C3         -14.5480   -15.7370   -18.0010 c3         1 WYS       0.021600
     11 C9         -15.5820   -10.9480   -23.5160 ca         1 WYS      -0.014000
     12 O1         -16.0680   -12.4110   -18.3060 os         1 WYS      -0.394900
     13 O2         -15.3640   -14.7830   -18.6950 os         1 WYS      -0.394900
     14 O4         -15.1110    -7.3520   -23.3830 o          1 WYS      -0.393000
     15 O5         -15.6820    -8.6150   -25.0670 o          1 WYS      -0.393000
     16 P1         -14.8610   -13.2650   -18.9760 p5         1 WYS       1.272200
     17 S1         -13.0470   -12.8380   -18.3640 s          1 WYS      -0.622000
     18 H1         -14.7780   -17.8040   -17.3610 hc         1 WYS       0.055533
     19 H2         -16.2880   -16.8670   -17.3280 hc         1 WYS       0.055533
     20 H3         -15.6150   -17.4230   -18.8810 hc         1 WYS       0.055533
     21 H4         -14.5930   -10.5330   -19.7670 ha         1 WYS       0.142000
     22 H5         -14.7140    -8.5600   -21.2070 ha         1 WYS       0.159000
     23 H6         -15.7350   -13.0610   -23.0900 ha         1 WYS       0.142000
     24 H7         -17.0700   -10.1050   -16.0870 hc         1 WYS       0.055533
     25 H8         -17.4380   -10.1850   -17.8240 hc         1 WYS       0.055533
     26 H9         -17.9930   -11.4790   -16.7330 hc         1 WYS       0.055533
     27 H10        -15.6040   -12.1270   -16.2840 h1         1 WYS       0.056700
     28 H11        -15.0520   -10.8280   -17.3730 h1         1 WYS       0.056700
     29 H12        -13.6170   -15.9320   -18.5500 h1         1 WYS       0.056700
     30 H13        -14.2920   -15.3770   -16.9950 h1         1 WYS       0.056700
     31 H14        -15.8570   -11.0810   -24.5610 ha         1 WYS       0.159000
     32 O3         -15.1190   -13.0960   -20.5690 os         1 WYS      -0.329400
@<TRIPOS>BOND
     1     1     6 1   
     2     1    14 1   
     3     1    15 1   
     4     2    10 1   
     5     2    18 1   
     6     2    19 1   
     7     2    20 1   
     8     3     4 ar  
     9     3     7 ar  
    10     3    32 1   
    11     4     5 ar  
    12     4    21 1   
    13     5     6 ar  
    14     5    22 1   
    15     6    11 ar  
    16     7    11 ar  
    17     7    23 1   
    18     8     9 1   
    19     8    24 1   
    20     8    25 1   
    21     8    26 1   
    22     9    12 1   
    23     9    27 1   
    24     9    28 1   
    25    10    13 1   
    26    10    29 1   
    27    10    30 1   
    28    11    31 1   
    29    12    16 1   
    30    13    16 1   
    31    16    17 2   
    32    16    32 1   
@<TRIPOS>SUBSTRUCTURE
     1 WYS         1 TEMP              0 ****  ****    0 ROOT
