@<TRIPOS>MOLECULE
WYT
   64    67     1     0     0
SMALL
abcg2


@<TRIPOS>ATOM
      1 C1          53.5280    26.4560     8.6800 c3         1 WYT      -0.080100
      2 C2          52.5430    26.3050     9.8290 c3         1 WYT      -0.159400
      3 C3          51.7910    27.5830    10.1290 c          1 WYT       0.603100
      4 C4          49.5460    28.3500    10.8800 ca         1 WYT      -0.008000
      5 C5          49.8350    29.7010    11.0580 ca         1 WYT      -0.124000
      6 C6          48.8400    30.5410    11.5330 ca         1 WYT       0.139100
      7 O1          52.3350    28.6730    10.0970 o          1 WYT      -0.579100
      8 O2          49.1200    31.8860    11.7110 os         1 WYT      -0.350400
      9 O3          53.5560    29.3060    13.7980 os         1 WYT      -0.335100
     10 N1          50.4830    27.4060    10.4540 ns         1 WYT      -0.144000
     11 C7          47.5620    30.1020    11.8090 ca         1 WYT      -0.132000
     12 C8          47.2780    28.7570    11.6020 ca         1 WYT      -0.076000
     13 C9          48.2530    27.8880    11.1520 ca         1 WYT      -0.172000
     14 C10         49.9520    32.2340    12.6940 ca         1 WYT       0.403300
     15 N2          50.4210    31.3180    13.4960 nb         1 WYT      -0.303000
     16 C11         51.2700    31.6940    14.4520 ca         1 WYT       0.426900
     17 N3          51.6570    32.9500    14.6860 nb         1 WYT      -0.259000
     18 C12         51.1580    33.8710    13.8750 ca         1 WYT       0.177900
     19 C13         50.2940    33.5800    12.8370 ca         1 WYT      -0.087000
     20 CL1         49.6820    34.7920    11.7820 cl         1 WYT      -0.162000
     21 N4          51.7620    30.7220    15.2500 nu         1 WYT      -0.920900
     22 C14         51.5480    29.3530    14.9710 ca         1 WYT       0.205000
     23 C15         52.4670    28.6320    14.2000 ca         1 WYT       0.179100
     24 C16         52.2170    27.2990    13.8790 ca         1 WYT      -0.264000
     25 C17         51.0520    26.6560    14.3180 ca         1 WYT       0.340000
     26 C18         50.1370    27.3920    15.0840 ca         1 WYT      -0.189000
     27 C19         50.3940    28.7130    15.3930 ca         1 WYT      -0.020000
     28 N5          50.8110    25.3150    14.0400 nh         1 WYT      -0.794400
     29 C20         51.8470    24.5410    13.3900 c6         1 WYT       0.202800
     30 C21         51.5750    23.0560    13.5370 c6         1 WYT       0.154800
     31 N6          50.2720    22.7080    13.0120 n3         1 WYT      -0.717600
     32 C22         49.2490    23.4590    13.7070 c6         1 WYT       0.154800
     33 C23         49.4850    24.9490    13.5630 c6         1 WYT       0.202800
     34 C24         50.0310    21.2850    13.0810 c3         1 WYT       0.151100
     35 C25         54.5500    28.6260    13.0560 c3         1 WYT       0.146900
     36 H1          54.0670    25.5230     8.5270 hc         1 WYT       0.045033
     37 H2          53.0180    26.7030     7.7480 hc         1 WYT       0.045033
     38 H3          54.2610    27.2350     8.8820 hc         1 WYT       0.045033
     39 H4          51.8540    25.4800     9.6350 hc         1 WYT       0.056200
     40 H5          53.0830    26.0380    10.7430 hc         1 WYT       0.056200
     41 H7          50.8170    30.0930    10.8540 ha         1 WYT       0.164000
     42 H6          50.1400    26.4570    10.4130 hn         1 WYT       0.150000
     43 H8          46.8070    30.7860    12.1750 ha         1 WYT       0.131000
     44 H9          46.2840    28.3810    11.8050 ha         1 WYT       0.115000
     45 H10         48.0160    26.8410    11.0110 ha         1 WYT       0.108000
     46 H11         51.4620    34.8980    14.0500 h4         1 WYT       0.033100
     47 H12         52.4940    30.9940    15.8890 hn         1 WYT       0.518000
     48 H13         52.9200    26.7660    13.2560 ha         1 WYT       0.114000
     49 H14         49.2380    26.9300    15.4670 ha         1 WYT       0.119000
     50 H15         49.6810    29.2700    15.9880 ha         1 WYT       0.124000
     51 H16         52.8110    24.7540    13.8550 h1         1 WYT       0.040950
     52 H17         51.9320    24.7920    12.3220 h1         1 WYT       0.040950
     53 H19         51.6740    22.7750    14.6010 h1         1 WYT       0.041700
     54 H18         52.3440    22.5080    12.9880 h1         1 WYT       0.041700
     55 H20         48.2720    23.2190    13.2810 h1         1 WYT       0.041700
     56 H21         49.2090    23.1990    14.7800 h1         1 WYT       0.041700
     57 H23         49.3680    25.2310    12.5070 h1         1 WYT       0.040950
     58 H22         48.7180    25.4770    14.1240 h1         1 WYT       0.040950
     59 H25         50.7970    20.7480    12.5200 h1         1 WYT       0.033367
     60 H26         50.0320    20.8960    14.1110 h1         1 WYT       0.033367
     61 H24         49.0630    21.0480    12.6370 h1         1 WYT       0.033367
     62 H29         55.3510    29.3430    12.8910 h1         1 WYT       0.044033
     63 H27         54.9520    27.7690    13.6010 h1         1 WYT       0.044033
     64 H28         54.1760    28.2890    12.0860 h1         1 WYT       0.044033
@<TRIPOS>BOND
     1     1     2 1   
     2     1    36 1   
     3     1    37 1   
     4     1    38 1   
     5     2     3 1   
     6     2    39 1   
     7     2    40 1   
     8     3     7 2   
     9     3    10 1   
    10     4     5 ar  
    11     4    10 1   
    12     4    13 ar  
    13     5     6 ar  
    14     5    41 1   
    15     6     8 1   
    16     6    11 ar  
    17     8    14 1   
    18     9    23 1   
    19     9    35 1   
    20    10    42 1   
    21    11    12 ar  
    22    11    43 1   
    23    12    13 ar  
    24    12    44 1   
    25    13    45 1   
    26    14    15 ar  
    27    14    19 ar  
    28    15    16 ar  
    29    16    17 ar  
    30    16    21 1   
    31    17    18 ar  
    32    18    19 ar  
    33    18    46 1   
    34    19    20 1   
    35    21    22 1   
    36    21    47 1   
    37    22    23 ar  
    38    22    27 ar  
    39    23    24 ar  
    40    24    25 ar  
    41    24    48 1   
    42    25    26 ar  
    43    25    28 1   
    44    26    27 ar  
    45    26    49 1   
    46    27    50 1   
    47    28    29 1   
    48    28    33 1   
    49    29    30 1   
    50    29    51 1   
    51    29    52 1   
    52    30    31 1   
    53    30    53 1   
    54    30    54 1   
    55    31    32 1   
    56    31    34 1   
    57    32    33 1   
    58    32    55 1   
    59    32    56 1   
    60    33    57 1   
    61    33    58 1   
    62    34    59 1   
    63    34    60 1   
    64    34    61 1   
    65    35    62 1   
    66    35    63 1   
    67    35    64 1   
@<TRIPOS>SUBSTRUCTURE
     1 WYT         1 TEMP              0 ****  ****    0 ROOT
