@<TRIPOS>MOLECULE
WYT
   64    67     1     0     0
SMALL
No Charge or Current Charge


@<TRIPOS>ATOM
      1 C1          51.5610    26.5210     7.9440 c3         1 WYT      -0.080100
      2 C2          51.1300    26.4010     9.4230 c3         1 WYT      -0.159400
      3 C3          50.7110    27.7590    10.0040 c          1 WYT       0.603100
      4 C4          48.5550    28.9810    10.6800 ca         1 WYT      -0.008000
      5 C5          49.0800    30.2580    10.9730 ca         1 WYT      -0.124000
      6 C6          48.2560    31.2600    11.5240 ca         1 WYT       0.139100
      7 O1          51.5440    28.6040    10.3080 o          1 WYT      -0.579100
      8 O2          48.7710    32.4910    11.8730 os         1 WYT      -0.350400
      9 O3          54.2880    28.9600    14.9000 os         1 WYT      -0.335100
     10 N1          49.3410    27.9080    10.1790 ns         1 WYT      -0.144000
     11 C7          46.8910    31.0120    11.7280 ca         1 WYT      -0.132000
     12 C8          46.3530    29.7550    11.4100 ca         1 WYT      -0.076000
     13 C9          47.1840    28.7450    10.8960 ca         1 WYT      -0.172000
     14 C10         49.8400    32.6340    12.7400 ca         1 WYT       0.403300
     15 N2          50.4150    31.5480    13.2900 nb         1 WYT      -0.303000
     16 C11         51.4420    31.7440    14.1230 ca         1 WYT       0.426900
     17 N3          51.9720    32.9250    14.4750 nb         1 WYT      -0.259000
     18 C12         51.3970    34.0220    13.9400 ca         1 WYT       0.177900
     19 C13         50.3120    33.9260    13.0500 ca         1 WYT      -0.087000
     20 Cl1         49.5850    35.3800    12.3610 cl         1 WYT      -0.162000
     21 N4          52.0860    30.6220    14.6240 nu         1 WYT      -0.920900
     22 C14         51.9380    29.2260    14.4310 ca         1 WYT       0.205000
     23 C15         53.0710    28.3790    14.5700 ca         1 WYT       0.179100
     24 C16         52.9480    26.9850    14.3700 ca         1 WYT      -0.264000
     25 C17         51.7070    26.4180    14.0390 ca         1 WYT       0.340000
     26 C18         50.5850    27.2500    13.9210 ca         1 WYT      -0.189000
     27 C19         50.6930    28.6360    14.1200 ca         1 WYT      -0.020000
     28 N5          51.5650    25.0270    13.8460 nh         1 WYT      -0.794400
     29 C20         52.4720    24.0440    14.5200 c6         1 WYT       0.202800
     30 C21         51.8260    22.6260    14.6530 c6         1 WYT       0.154800
     31 N6          51.3140    22.0940    13.3520 n3         1 WYT      -0.717600
     32 C22         50.3580    23.0730    12.7480 c6         1 WYT       0.154800
     33 C23         50.9780    24.4970    12.5750 c6         1 WYT       0.202800
     34 C24         50.7400    20.7370    13.4760 c3         1 WYT       0.151100
     35 C25         55.4950    28.1940    15.0570 c3         1 WYT       0.146900
     36 H1          51.8590    25.5410     7.5510 hc         1 WYT       0.045033
     37 H2          50.7370    26.9000     7.3280 hc         1 WYT       0.045033
     38 H3          52.4130    27.2040     7.8400 hc         1 WYT       0.045033
     39 H4          50.2970    25.6900     9.4790 hc         1 WYT       0.056200
     40 H5          51.9850    26.0210     9.9950 hc         1 WYT       0.056200
     41 H7          50.1250    30.4890    10.7970 ha         1 WYT       0.164000
     42 H6          48.7980    27.1010     9.8980 hn         1 WYT       0.150000
     43 H8          46.2550    31.7900    12.1420 ha         1 WYT       0.131000
     44 H9          45.2940    29.5600    11.5730 ha         1 WYT       0.115000
     45 H10         46.7580    27.7700    10.6680 ha         1 WYT       0.108000
     46 H11         51.8160    34.9860    14.2230 h4         1 WYT       0.033100
     47 H12         52.9770    30.8630    15.0630 hn         1 WYT       0.518000
     48 H13         53.8130    26.3390    14.4580 ha         1 WYT       0.114000
     49 H14         49.6140    26.8210    13.6940 ha         1 WYT       0.119000
     50 H15         49.7930    29.2380    14.0500 ha         1 WYT       0.124000
     51 H16         52.7340    24.3980    15.5280 h1         1 WYT       0.040950
     52 H17         53.4080    23.9530    13.9500 h1         1 WYT       0.040950
     53 H19         51.0050    22.6880    15.3820 h1         1 WYT       0.041700
     54 H18         52.5760    21.9410    15.0760 h1         1 WYT       0.041700
     55 H20         50.0220    22.7180    11.7630 h1         1 WYT       0.041700
     56 H21         49.4610    23.1600    13.3790 h1         1 WYT       0.041700
     57 H23         51.7630    24.4440    11.8070 h1         1 WYT       0.040950
     58 H22         50.1970    25.1700    12.1930 h1         1 WYT       0.040950
     59 H25         51.4840    20.0370    13.8790 h1         1 WYT       0.033367
     60 H26         49.8700    20.7380    14.1470 h1         1 WYT       0.033367
     61 H24         50.4180    20.3610    12.4960 h1         1 WYT       0.033367
     62 H29         56.3320    28.8540    15.3180 h1         1 WYT       0.044033
     63 H27         55.3850    27.4520    15.8580 h1         1 WYT       0.044033
     64 H28         55.7510    27.6730    14.1260 h1         1 WYT       0.044033
@<TRIPOS>BOND
     1     1     2 1   
     2     1    36 1   
     3     1    37 1   
     4     1    38 1   
     5     2     3 1   
     6     2    39 1   
     7     2    40 1   
     8     3     7 2   
     9     3    10 1   
    10     4     5 ar  
    11     4    10 1   
    12     4    13 ar  
    13     5     6 ar  
    14     5    41 1   
    15     6     8 1   
    16     6    11 ar  
    17     8    14 1   
    18     9    23 1   
    19     9    35 1   
    20    10    42 1   
    21    11    12 ar  
    22    11    43 1   
    23    12    13 ar  
    24    12    44 1   
    25    13    45 1   
    26    14    15 ar  
    27    14    19 ar  
    28    15    16 ar  
    29    16    17 ar  
    30    16    21 1   
    31    17    18 ar  
    32    18    19 ar  
    33    18    46 1   
    34    19    20 1   
    35    21    22 1   
    36    21    47 1   
    37    22    23 ar  
    38    22    27 ar  
    39    23    24 ar  
    40    24    25 ar  
    41    24    48 1   
    42    25    26 ar  
    43    25    28 1   
    44    26    27 ar  
    45    26    49 1   
    46    27    50 1   
    47    28    29 1   
    48    28    33 1   
    49    29    30 1   
    50    29    51 1   
    51    29    52 1   
    52    30    31 1   
    53    30    53 1   
    54    30    54 1   
    55    31    32 1   
    56    31    34 1   
    57    32    33 1   
    58    32    55 1   
    59    32    56 1   
    60    33    57 1   
    61    33    58 1   
    62    34    59 1   
    63    34    60 1   
    64    34    61 1   
    65    35    62 1   
    66    35    63 1   
    67    35    64 1   
@<TRIPOS>SUBSTRUCTURE
     1 WYT         1 TEMP              0 ****  ****    0 ROOT
