@<TRIPOS>MOLECULE
WYU
   58    62     1     0     0
SMALL
abcg2


@<TRIPOS>ATOM
      1 C4          99.1050    62.7570    58.1210 c6         1 WYU      -0.005000
      2 C5         101.2460    63.8830    57.4580 cc         1 WYU      -0.201300
      3 C6         100.5970    62.7780    57.8800 cd         1 WYU      -0.026300
      4 C7         101.4660    61.6350    58.0160 cd         1 WYU      -0.162000
      5 C8         102.7830    61.9160    57.6950 cc         1 WYU       0.267000
      6 C10         98.8090    62.0900    59.4280 cc         1 WYU       0.484300
      7 N12         99.0900    61.6820    61.5440 nc         1 WYU      -0.324300
      8 C13         98.0690    61.0450    61.0560 cd         1 WYU       0.488000
      9 C20         95.5240    58.5710    62.1260 ca         1 WYU       0.144900
     10 C21         96.2400    59.3870    61.2610 ca         1 WYU      -0.244000
     11 C22        101.0600    60.3650    58.4640 ch         1 WYU       0.350000
     12 C26         98.0390    60.0590    65.8180 c3         1 WYU       0.204500
     13 C1         100.6500    65.2290    57.2160 c6         1 WYU       0.000900
     14 C16         97.2260    60.1510    61.8630 ca         1 WYU       0.127000
     15 C18         96.7150    59.3120    63.9110 ca         1 WYU       0.389900
     16 C2          99.1350    65.0960    57.1050 c6         1 WYU      -0.070400
     17 C25         98.3960    61.9930    56.9970 c3         1 WYU      -0.077100
     18 C27         98.6770    59.3440    67.0160 c3         1 WYU       0.157800
     19 C29         97.8870    57.0310    67.1920 c3         1 WYU       0.168800
     20 C3          98.5790    64.2120    58.2140 c6         1 WYU      -0.070400
     21 C30         96.6410    57.0800    66.3110 c3         1 WYU      -0.135400
     22 C31         96.0970    58.4910    66.1120 c3         1 WYU       0.236800
     23 C32         97.5980    61.4660    66.2030 c3         1 WYU      -0.101100
     24 N14         97.8590    61.2740    59.7300 nd         1 WYU      -0.705000
     25 N15        103.8350    61.0800    57.6740 nv         1 WYU      -1.071000
     26 N17         97.4660    60.1280    63.1620 nb         1 WYU      -0.232000
     27 N19         95.7460    58.5160    63.4230 nb         1 WYU      -0.242000
     28 N23        100.7300    59.3200    58.8350 n1         1 WYU      -0.472000
     29 N24         96.9400    59.2910    65.2400 nh         1 WYU      -0.776300
     30 N28         98.9720    57.9360    66.8650 n7         1 WYU      -0.875400
     31 O11         99.5790    62.3700    60.4750 os         1 WYU      -0.081700
     32 S9         102.9430    63.5700    57.2180 ss         1 WYU       0.158000
     33 H1          94.7380    57.9270    61.7450 h4         1 WYU       0.022100
     34 H2          96.0420    59.4130    60.2010 ha         1 WYU       0.155000
     35 H3          98.8050    60.1400    65.0460 h1         1 WYU       0.085700
     36 H4         101.0570    65.6750    56.3050 hc         1 WYU       0.054700
     37 H5         100.9100    65.9070    58.0350 hc         1 WYU       0.054700
     38 H6          98.6750    66.0830    57.1690 hc         1 WYU       0.049200
     39 H7          98.8720    64.6910    56.1250 hc         1 WYU       0.049200
     40 H8          97.3180    61.9780    57.1580 hc         1 WYU       0.052367
     41 H9          98.5930    62.4770    56.0420 hc         1 WYU       0.052367
     42 H10         98.7420    60.9620    56.9250 hc         1 WYU       0.052367
     43 H11         99.6010    59.8920    67.2300 h1         1 WYU       0.052700
     44 H12         98.0540    59.4640    67.9080 h1         1 WYU       0.052700
     45 H13         97.5930    57.2410    68.2250 h1         1 WYU       0.047700
     46 H14         98.2830    56.0120    67.1930 h1         1 WYU       0.047700
     47 H15         98.8580    64.6470    59.1770 hc         1 WYU       0.058200
     48 H16         97.4890    64.1890    58.1780 hc         1 WYU       0.058200
     49 H17         95.8650    56.4620    66.7720 hc         1 WYU       0.055200
     50 H18         96.8450    56.6410    65.3310 hc         1 WYU       0.055200
     51 H19         96.0050    59.0070    67.0710 h1         1 WYU       0.057700
     52 H20         95.0950    58.4500    65.6920 h1         1 WYU       0.057700
     53 H21         98.4250    62.0240    66.6430 hc         1 WYU       0.042367
     54 H22         97.2500    62.0190    65.3310 hc         1 WYU       0.042367
     55 H23         96.7870    61.4350    66.9340 hc         1 WYU       0.042367
     56 H24        104.7690    61.4540    57.6530 hn         1 WYU       0.487000
     57 H25        103.7510    60.1850    58.1300 hn         1 WYU       0.487000
     58 H26         99.3510    57.7390    65.9470 hn         1 WYU       0.424000
@<TRIPOS>BOND
     1     1     3 1   
     2     1     6 1   
     3     1    17 1   
     4     1    20 1   
     5     2     3 2   
     6     2    13 1   
     7     2    32 1   
     8     3     4 1   
     9     4     5 2   
    10     4    11 1   
    11     5    25 1   
    12     5    32 1   
    13     6    24 2   
    14     6    31 1   
    15     7     8 2   
    16     7    31 1   
    17     8    14 1   
    18     8    24 1   
    19     9    10 ar  
    20     9    27 ar  
    21     9    33 1   
    22    10    14 ar  
    23    10    34 1   
    24    11    28 3   
    25    12    18 1   
    26    12    23 1   
    27    12    29 1   
    28    12    35 1   
    29    13    16 1   
    30    13    36 1   
    31    13    37 1   
    32    14    26 ar  
    33    15    26 ar  
    34    15    27 ar  
    35    15    29 1   
    36    16    20 1   
    37    16    38 1   
    38    16    39 1   
    39    17    40 1   
    40    17    41 1   
    41    17    42 1   
    42    18    30 1   
    43    18    43 1   
    44    18    44 1   
    45    19    21 1   
    46    19    30 1   
    47    19    45 1   
    48    19    46 1   
    49    20    47 1   
    50    20    48 1   
    51    21    22 1   
    52    21    49 1   
    53    21    50 1   
    54    22    29 1   
    55    22    51 1   
    56    22    52 1   
    57    23    53 1   
    58    23    54 1   
    59    23    55 1   
    60    25    56 1   
    61    25    57 1   
    62    30    58 1   
@<TRIPOS>SUBSTRUCTURE
     1 WYU         1 TEMP              0 ****  ****    0 ROOT
