@<TRIPOS>MOLECULE
WYU
   58    62     1     0     0
SMALL
No Charge or Current Charge


@<TRIPOS>ATOM
      1 C4          99.1700    62.7370    58.0190 c6         1 WYU      -0.005000
      2 C5         101.2530    64.0370    57.2960 cc         1 WYU      -0.201300
      3 C6         100.6840    62.8760    57.7780 cd         1 WYU      -0.026300
      4 C7         101.6470    61.8210    57.9900 cd         1 WYU      -0.162000
      5 C8         102.9320    62.2090    57.6820 cc         1 WYU       0.267000
      6 C10         98.8390    62.1440    59.3860 cc         1 WYU       0.484300
      7 N12         99.0500    61.8280    61.5730 nc         1 WYU      -0.324300
      8 C13         98.0370    61.1400    61.0650 cd         1 WYU       0.488000
      9 C20         95.3050    58.7460    62.1730 ca         1 WYU       0.144900
     10 C21         96.0790    59.5490    61.3240 ca         1 WYU      -0.244000
     11 C22        101.3500    60.5100    58.4550 ch         1 WYU       0.350000
     12 C26         98.1630    59.8460    65.9390 c3         1 WYU       0.204500
     13 C1         100.5010    65.3040    56.9650 c6         1 WYU       0.000900
     14 C16         97.1590    60.2620    61.8880 ca         1 WYU       0.127000
     15 C18         96.6210    59.3620    63.9590 ca         1 WYU       0.389900
     16 C2          98.9920    65.0250    56.8110 c6         1 WYU      -0.070400
     17 C25         98.5820    61.8370    56.8810 c3         1 WYU      -0.077100
     18 C27         98.7860    59.0570    67.1440 c3         1 WYU       0.157800
     19 C29         97.6230    56.8380    67.4010 c3         1 WYU       0.168800
     20 C3          98.4860    64.1450    57.9770 c6         1 WYU      -0.070400
     21 C30         96.4060    57.0610    66.4790 c3         1 WYU      -0.135400
     22 C31         96.0080    58.5370    66.2840 c3         1 WYU       0.236800
     23 C32         97.9710    61.3320    66.3100 c3         1 WYU      -0.101100
     24 N14         97.8610    61.3180    59.7070 nd         1 WYU      -0.705000
     25 N15        104.0700    61.4410    57.7750 nv         1 WYU      -1.071000
     26 N17         97.4190    60.1570    63.2120 nb         1 WYU      -0.232000
     27 N19         95.5740    58.6500    63.4880 nb         1 WYU      -0.242000
     28 N23        101.0910    59.4450    58.8580 n1         1 WYU      -0.472000
     29 N24         96.9130    59.2620    65.3530 nh         1 WYU      -0.776300
     30 N28         98.8170    57.5790    66.9440 n7         1 WYU      -0.875400
     31 O11         99.5900    62.5100    60.4640 os         1 WYU      -0.081700
     32 S9         102.9900    63.8800    57.1180 ss         1 WYU       0.158000
     33 H1          94.4600    58.1710    61.7980 h4         1 WYU       0.022100
     34 H2          95.8480    59.6140    60.2640 ha         1 WYU       0.155000
     35 H3          98.9490    59.8140    65.1710 h1         1 WYU       0.085700
     36 H4         100.8870    65.7600    56.0430 hc         1 WYU       0.054700
     37 H5         100.6550    66.0460    57.7610 hc         1 WYU       0.054700
     38 H6          98.4410    65.9760    56.7910 hc         1 WYU       0.049200
     39 H7          98.7960    64.5360    55.8480 hc         1 WYU       0.049200
     40 H8          97.4870    61.8020    56.9180 hc         1 WYU       0.052367
     41 H9          98.8660    62.2030    55.8880 hc         1 WYU       0.052367
     42 H10         98.9400    60.8040    56.9550 hc         1 WYU       0.052367
     43 H11         99.8110    59.4290    67.2770 h1         1 WYU       0.052700
     44 H12         98.2430    59.3080    68.0660 h1         1 WYU       0.052700
     45 H13         97.3590    57.1300    68.4270 h1         1 WYU       0.047700
     46 H14         97.8390    55.7610    67.4200 h1         1 WYU       0.047700
     47 H15         98.6780    64.6790    58.9190 hc         1 WYU       0.058200
     48 H16         97.3940    64.0350    57.9160 hc         1 WYU       0.058200
     49 H17         95.5520    56.5300    66.9150 hc         1 WYU       0.055200
     50 H18         96.5910    56.6000    65.5020 hc         1 WYU       0.055200
     51 H19         95.9870    59.0380    67.2620 h1         1 WYU       0.057700
     52 H20         94.9720    58.5780    65.9210 h1         1 WYU       0.057700
     53 H21         98.9120    61.7640    66.6720 hc         1 WYU       0.042367
     54 H22         97.6450    61.9140    65.4410 hc         1 WYU       0.042367
     55 H23         97.2160    61.4410    67.0980 hc         1 WYU       0.042367
     56 H24        104.9870    61.8680    57.6480 hn         1 WYU       0.487000
     57 H25        104.0410    60.5300    58.2330 hn         1 WYU       0.487000
     58 H26         98.9460    57.3960    65.9410 hn         1 WYU       0.424000
@<TRIPOS>BOND
     1     1     3 1   
     2     1     6 1   
     3     1    17 1   
     4     1    20 1   
     5     2     3 2   
     6     2    13 1   
     7     2    32 1   
     8     3     4 1   
     9     4     5 2   
    10     4    11 1   
    11     5    25 1   
    12     5    32 1   
    13     6    24 2   
    14     6    31 1   
    15     7     8 2   
    16     7    31 1   
    17     8    14 1   
    18     8    24 1   
    19     9    10 ar  
    20     9    27 ar  
    21     9    33 1   
    22    10    14 ar  
    23    10    34 1   
    24    11    28 3   
    25    12    18 1   
    26    12    23 1   
    27    12    29 1   
    28    12    35 1   
    29    13    16 1   
    30    13    36 1   
    31    13    37 1   
    32    14    26 ar  
    33    15    26 ar  
    34    15    27 ar  
    35    15    29 1   
    36    16    20 1   
    37    16    38 1   
    38    16    39 1   
    39    17    40 1   
    40    17    41 1   
    41    17    42 1   
    42    18    30 1   
    43    18    43 1   
    44    18    44 1   
    45    19    21 1   
    46    19    30 1   
    47    19    45 1   
    48    19    46 1   
    49    20    47 1   
    50    20    48 1   
    51    21    22 1   
    52    21    49 1   
    53    21    50 1   
    54    22    29 1   
    55    22    51 1   
    56    22    52 1   
    57    23    53 1   
    58    23    54 1   
    59    23    55 1   
    60    25    56 1   
    61    25    57 1   
    62    30    58 1   
@<TRIPOS>SUBSTRUCTURE
     1 WYU         1 TEMP              0 ****  ****    0 ROOT
