@<TRIPOS>MOLECULE
WYW
   36    37     1     0     0
SMALL
abcg2


@<TRIPOS>ATOM
      1 N1          18.8480   -13.2880    -7.5160 nc         1 WYW      -0.556800
      2 N3          19.4430   -14.9740    -8.8980 nd         1 WYW      -0.686000
      3 C4          25.1930   -15.3650    -6.3410 c3         1 WYW      -0.096100
      4 C5          19.7340   -14.2080    -7.8260 cd         1 WYW       0.796300
      5 C6          18.2770   -14.4840    -9.2880 cc         1 WYW       0.455400
      6 C7          16.7330   -12.6680    -8.5340 ca         1 WYW       0.012800
      7 C8          16.1060   -12.4440    -9.7570 ca         1 WYW      -0.104000
      8 C10         14.4350   -11.1190    -8.6280 ca         1 WYW      -0.105000
      9 C1          20.9930   -11.1590    -3.6050 c3         1 WYW      -0.096100
     10 C11         15.0790   -11.3400    -7.4150 ca         1 WYW      -0.095500
     11 C12         16.2280   -12.1190    -7.3600 ca         1 WYW      -0.104000
     12 C2          21.8920   -11.5020    -4.7660 c3         1 WYW       0.021100
     13 C3          24.0950   -14.7530    -7.1740 c3         1 WYW       0.021100
     14 C9          14.9500   -11.6750    -9.7950 ca         1 WYW      -0.095500
     15 N2          17.9040   -13.4700    -8.4830 na         1 WYW       0.042500
     16 O1          21.3320   -12.6780    -5.4310 os         1 WYW      -0.392900
     17 O2          23.1480   -14.1140    -6.2630 os         1 WYW      -0.392900
     18 O3          20.8610   -14.4170    -7.1090 os         1 WYW      -0.540700
     19 P1          21.9340   -13.2480    -6.7680 p5         1 WYW       1.286200
     20 S1          22.2640   -12.0040    -8.2060 s          1 WYW      -0.628000
     21 H1          25.9150   -15.8480    -7.0020 hc         1 WYW       0.053867
     22 H2          25.7120   -14.6000    -5.7620 hc         1 WYW       0.053867
     23 H3          24.7940   -16.1160    -5.6580 hc         1 WYW       0.053867
     24 H4          17.6810   -14.8360   -10.1130 h5         1 WYW       0.074100
     25 H5          16.5220   -12.8490   -10.6690 ha         1 WYW       0.133500
     26 H6          13.5390   -10.5140    -8.6650 ha         1 WYW       0.121000
     27 H7          21.3950   -10.2850    -3.0900 hc         1 WYW       0.053867
     28 H8          19.9860   -10.9240    -3.9520 hc         1 WYW       0.053867
     29 H9          20.9410   -11.9860    -2.8950 hc         1 WYW       0.053867
     30 H10         14.6850   -10.9110    -6.5030 ha         1 WYW       0.122000
     31 H11         16.7280   -12.3060    -6.4210 ha         1 WYW       0.133500
     32 H12         22.9020   -11.7510    -4.4390 h1         1 WYW       0.058200
     33 H13         21.9400   -10.6940    -5.4960 h1         1 WYW       0.058200
     34 H14         23.5520   -15.5050    -7.7470 h1         1 WYW       0.058200
     35 H15         24.4740   -13.9910    -7.8530 h1         1 WYW       0.058200
     36 H16         14.4620   -11.4990   -10.7440 ha         1 WYW       0.122000
@<TRIPOS>BOND
     1     1     4 2   
     2     1    15 1   
     3     2     4 1   
     4     2     5 2   
     5     3    13 1   
     6     3    21 1   
     7     3    22 1   
     8     3    23 1   
     9     4    18 1   
    10     5    15 1   
    11     5    24 1   
    12     6     7 ar  
    13     6    11 ar  
    14     6    15 1   
    15     7    14 ar  
    16     7    25 1   
    17     8    10 ar  
    18     8    14 ar  
    19     8    26 1   
    20     9    12 1   
    21     9    27 1   
    22     9    28 1   
    23     9    29 1   
    24    10    11 ar  
    25    10    30 1   
    26    11    31 1   
    27    12    16 1   
    28    12    32 1   
    29    12    33 1   
    30    13    17 1   
    31    13    34 1   
    32    13    35 1   
    33    14    36 1   
    34    16    19 1   
    35    17    19 1   
    36    18    19 1   
    37    19    20 2   
@<TRIPOS>SUBSTRUCTURE
     1 WYW         1 TEMP              0 ****  ****    0 ROOT
