@<TRIPOS>MOLECULE
WYW
   36    37     1     0     0
SMALL
No Charge or Current Charge


@<TRIPOS>ATOM
      1 N1          19.2970   -13.1420    -7.9010 nc         1 WYW      -0.556800
      2 N3          18.9410   -15.4200    -7.9900 nd         1 WYW      -0.686000
      3 C4          25.6210   -15.2650    -6.4330 c3         1 WYW      -0.096100
      4 C5          19.8010   -14.3590    -7.8280 cd         1 WYW       0.796300
      5 C6          17.7700   -14.8190    -8.1400 cc         1 WYW       0.455400
      6 C7          17.0160   -12.4740    -8.2410 ca         1 WYW       0.012800
      7 C8          15.9540   -12.6580    -9.1540 ca         1 WYW      -0.104000
      8 C10         15.0410   -10.4770    -8.5660 ca         1 WYW      -0.105000
      9 C1          19.6870   -12.1680    -4.4040 c3         1 WYW      -0.096100
     10 C11         16.0950   -10.2830    -7.6580 ca         1 WYW      -0.095500
     11 C12         17.0780   -11.2750    -7.4970 ca         1 WYW      -0.104000
     12 C2          20.9730   -11.9380    -5.2160 c3         1 WYW       0.021100
     13 C3          24.7120   -14.1800    -7.0340 c3         1 WYW       0.021100
     14 C9          14.9720   -11.6640    -9.3140 ca         1 WYW      -0.095500
     15 N2          17.9940   -13.4620    -8.0740 na         1 WYW       0.042500
     16 O1          21.4780   -13.2280    -5.5950 os         1 WYW      -0.392900
     17 O2          23.3670   -14.4780    -6.6350 os         1 WYW      -0.392900
     18 O3          21.1060   -14.6080    -7.6910 os         1 WYW      -0.540700
     19 P1          22.1140   -13.5380    -7.0570 p5         1 WYW       1.286200
     20 S1          22.5760   -12.0030    -8.1860 s          1 WYW      -0.628000
     21 H1          26.6660   -15.0820    -6.7100 hc         1 WYW       0.053867
     22 H2          25.5510   -15.2650    -5.3390 hc         1 WYW       0.053867
     23 H3          25.3360   -16.2570    -6.8020 hc         1 WYW       0.053867
     24 H4          16.7980   -15.2730    -8.2900 h5         1 WYW       0.074100
     25 H5          15.8870   -13.5650    -9.7520 ha         1 WYW       0.133500
     26 H6          14.2810    -9.7090    -8.6910 ha         1 WYW       0.121000
     27 H7          19.2540   -11.2090    -4.0980 hc         1 WYW       0.053867
     28 H8          18.9410   -12.7080    -4.9990 hc         1 WYW       0.053867
     29 H9          19.9010   -12.7520    -3.5010 hc         1 WYW       0.053867
     30 H10         16.1510    -9.3630    -7.0790 ha         1 WYW       0.122000
     31 H11         17.8870   -11.1110    -6.7900 ha         1 WYW       0.133500
     32 H12         21.7080   -11.4000    -4.6010 h1         1 WYW       0.058200
     33 H13         20.7360   -11.3190    -6.0920 h1         1 WYW       0.058200
     34 H14         24.8070   -14.1880    -8.1290 h1         1 WYW       0.058200
     35 H15         25.0230   -13.1940    -6.6630 h1         1 WYW       0.058200
     36 H16         14.1580   -11.8130   -10.0210 ha         1 WYW       0.122000
@<TRIPOS>BOND
     1     1     4 2   
     2     1    15 1   
     3     2     4 1   
     4     2     5 2   
     5     3    13 1   
     6     3    21 1   
     7     3    22 1   
     8     3    23 1   
     9     4    18 1   
    10     5    15 1   
    11     5    24 1   
    12     6     7 ar  
    13     6    11 ar  
    14     6    15 1   
    15     7    14 ar  
    16     7    25 1   
    17     8    10 ar  
    18     8    14 ar  
    19     8    26 1   
    20     9    12 1   
    21     9    27 1   
    22     9    28 1   
    23     9    29 1   
    24    10    11 ar  
    25    10    30 1   
    26    11    31 1   
    27    12    16 1   
    28    12    32 1   
    29    12    33 1   
    30    13    17 1   
    31    13    34 1   
    32    13    35 1   
    33    14    36 1   
    34    16    19 1   
    35    17    19 1   
    36    18    19 1   
    37    19    20 2   
@<TRIPOS>SUBSTRUCTURE
     1 WYW         1 TEMP              0 ****  ****    0 ROOT
