@<TRIPOS>MOLECULE
WYX
   54    58     1     0     0
SMALL
No Charge or Current Charge


@<TRIPOS>ATOM
      1 C1           1.4930     4.1310    36.7590 c3         1 WYX       0.200100
      2 C2           3.6460     2.9400    36.3740 ca         1 WYX       0.314000
      3 C3           4.0610     2.6390    37.6840 ca         1 WYX      -0.157000
      4 C4           5.4240     2.5110    37.9890 ca         1 WYX      -0.070000
      5 C5           6.3760     2.6910    36.9770 ca         1 WYX      -0.135000
      6 C6           5.9640     2.9900    35.6670 ca         1 WYX      -0.043000
      7 C8           4.2110     3.4620    33.9220 c          1 WYX       0.590600
      8 C9           1.9670     2.2120    33.9330 ca         1 WYX      -0.121400
      9 C10          1.4460     1.1670    33.1370 ca         1 WYX       0.142900
     10 C11          0.4110     0.2650    34.9560 ca         1 WYX       0.404900
     11 C14         -1.7260    -2.1030    36.9610 cc         1 WYX      -0.233000
     12 C15         -0.6730    -0.3870    37.9350 cd         1 WYX       0.243900
     13 C17         -2.2790    -4.4430    39.0050 c6         1 WYX      -0.110400
     14 C18         -3.1540    -5.2970    38.0600 c6         1 WYX       0.161800
     15 C20         -4.2940    -2.8450    38.7050 c6         1 WYX      -0.110400
     16 N1           2.2990     3.0650    36.1260 na         1 WYX      -0.783100
     17 C7           4.5900     3.1030    35.3430 ca         1 WYX      -0.159600
     18 N2           2.9360     3.1340    33.3640 n          1 WYX      -0.292000
     19 N3           0.6500     0.2070    33.6410 nb         1 WYX      -0.248000
     20 N4           0.9080     1.1620    35.8170 nb         1 WYX      -0.277000
     21 C12          1.7090     2.1210    35.3210 ca         1 WYX       0.384900
     22 N5          -0.4200    -0.7350    35.4450 nu         1 WYX      -0.897900
     23 C13         -0.9060    -1.0520    36.7000 cd         1 WYX       0.189000
     24 N6          -1.9510    -2.0270    38.3380 na         1 WYX       0.142800
     25 N7          -1.3010    -0.9660    38.9450 nc         1 WYX      -0.518800
     26 C16         -2.7960    -2.9730    39.1120 c6         1 WYX       0.096300
     27 N8          -4.5750    -5.3410    38.5070 n7         1 WYX      -0.866400
     28 C19         -5.0850    -4.0960    39.1480 c6         1 WYX       0.161800
     29 C21          2.6670     3.6090    31.9830 c3         1 WYX       0.091300
     30 H1           2.1350     4.9760    37.0400 h1         1 WYX       0.047033
     31 H2           0.7260     4.4880    36.0590 h1         1 WYX       0.047033
     32 H3           1.0000     3.7420    37.6600 h1         1 WYX       0.047033
     33 H4           3.3200     2.5040    38.4670 ha         1 WYX       0.122000
     34 H5           5.7390     2.2790    39.0040 ha         1 WYX       0.116000
     35 H6           7.4360     2.6000    37.2050 ha         1 WYX       0.121000
     36 H7           6.7220     3.1260    34.8980 ha         1 WYX       0.134000
     37 H8           1.6670     1.0920    32.0740 h4         1 WYX       0.030100
     38 H11         -0.0720     0.4920    38.1280 h4         1 WYX       0.058100
     39 H13         -2.2920    -4.9010    40.0030 hc         1 WYX       0.061700
     40 H14         -1.2310    -4.4670    38.6780 hc         1 WYX       0.061700
     41 H15         -3.1080    -4.8690    37.0480 h1         1 WYX       0.042700
     42 H16         -2.7560    -6.3210    37.9970 h1         1 WYX       0.042700
     43 H20         -4.7260    -1.9440    39.1590 hc         1 WYX       0.061700
     44 H21         -4.3960    -2.7230    37.6180 hc         1 WYX       0.061700
     45 H9          -0.7360    -1.3720    34.7130 hn         1 WYX       0.515000
     46 H12         -2.7110    -2.6850    40.1690 h1         1 WYX       0.089700
     47 H17         -5.1600    -5.5680    37.6910 hn         1 WYX       0.411000
     48 H19         -4.9970    -4.1950    40.2400 h1         1 WYX       0.042700
     49 H18         -6.1540    -3.9720    38.9180 h1         1 WYX       0.042700
     50 H23          2.9300     4.6700    31.8900 h1         1 WYX       0.047033
     51 H24          3.2600     3.0240    31.2680 h1         1 WYX       0.047033
     52 H22          1.6020     3.5000    31.7420 h1         1 WYX       0.047033
     53 O1           5.0280     4.0740    33.2390 o          1 WYX      -0.553000
     54 H10         -2.1520    -2.8630    36.3220 h4         1 WYX       0.154000
@<TRIPOS>BOND
     1     1    16 1   
     2     1    30 1   
     3     1    31 1   
     4     1    32 1   
     5     2     3 ar  
     6     2    16 1   
     7     2    17 ar  
     8     3     4 ar  
     9     3    33 1   
    10     4     5 ar  
    11     4    34 1   
    12     5     6 ar  
    13     5    35 1   
    14     6    17 ar  
    15     6    36 1   
    16     7    17 1   
    17     7    18 1   
    18     7    53 2   
    19     8     9 ar  
    20     8    18 1   
    21     8    21 ar  
    22     9    19 ar  
    23     9    37 1   
    24    10    19 ar  
    25    10    20 ar  
    26    10    22 1   
    27    11    23 2   
    28    11    24 1   
    29    11    54 1   
    30    12    23 1   
    31    12    25 2   
    32    12    38 1   
    33    13    14 1   
    34    13    26 1   
    35    13    39 1   
    36    13    40 1   
    37    14    27 1   
    38    14    41 1   
    39    14    42 1   
    40    15    26 1   
    41    15    28 1   
    42    15    43 1   
    43    15    44 1   
    44    16    21 1   
    45    18    29 1   
    46    20    21 ar  
    47    22    23 1   
    48    22    45 1   
    49    24    25 1   
    50    24    26 1   
    51    26    46 1   
    52    27    28 1   
    53    27    47 1   
    54    28    48 1   
    55    28    49 1   
    56    29    50 1   
    57    29    51 1   
    58    29    52 1   
@<TRIPOS>SUBSTRUCTURE
     1 WYX         1 TEMP              0 ****  ****    0 ROOT
