@<TRIPOS>MOLECULE
WYX
   54    58     1     0     0
SMALL
abcg2


@<TRIPOS>ATOM
      1 C1           1.4680     3.0790    37.4110 c3         1 WYX       0.200100
      2 C2           3.6820     2.9660    36.3560 ca         1 WYX       0.314000
      3 C3           4.2740     2.7670    37.6050 ca         1 WYX      -0.157000
      4 C4           5.6500     2.8060    37.7530 ca         1 WYX      -0.070000
      5 C5           6.4680     3.0400    36.6560 ca         1 WYX      -0.135000
      6 C6           5.8870     3.2740    35.4250 ca         1 WYX      -0.043000
      7 C8           3.9950     3.6820    33.9250 c          1 WYX       0.590600
      8 C9           2.2480     1.9790    33.9810 ca         1 WYX      -0.121400
      9 C10          1.8450     0.9110    33.1940 ca         1 WYX       0.142900
     10 C11          0.6400     0.0460    34.8890 ca         1 WYX       0.404900
     11 C14         -1.7330    -2.0450    36.8560 cc         1 WYX      -0.233000
     12 C15         -0.6480    -0.3470    37.7490 cd         1 WYX       0.243900
     13 C17         -2.4320    -4.1320    39.1500 c6         1 WYX      -0.110400
     14 C18         -3.1630    -5.1300    38.2660 c6         1 WYX       0.161800
     15 C20         -4.3710    -2.7000    38.3770 c6         1 WYX      -0.110400
     16 N1           2.2790     2.8790    36.2210 na         1 WYX      -0.783100
     17 C7           4.5020     3.2420    35.2550 ca         1 WYX      -0.159600
     18 N2           2.8820     3.1010    33.4170 n          1 WYX      -0.292000
     19 N3           1.0580    -0.0580    33.6250 nb         1 WYX      -0.248000
     20 N4           1.0220     0.9840    35.7510 nb         1 WYX      -0.277000
     21 C12          1.8310     1.9290    35.3130 ca         1 WYX       0.384900
     22 N5          -0.2290    -0.9080    35.2980 nu         1 WYX      -0.897900
     23 C13         -0.8110    -1.0640    36.5480 cd         1 WYX       0.189000
     24 N6          -2.0550    -1.8760    38.1550 na         1 WYX       0.142800
     25 N7          -1.4080    -0.8620    38.7030 nc         1 WYX      -0.518800
     26 C16         -2.9530    -2.6920    38.9560 c6         1 WYX       0.096300
     27 N8          -4.5790    -5.1720    38.6210 n7         1 WYX      -0.866400
     28 C19         -5.1420    -3.8700    38.9760 c6         1 WYX       0.161800
     29 C21          2.3820     3.5960    32.1400 c3         1 WYX       0.091300
     30 H1           1.7950     3.9930    37.9040 h1         1 WYX       0.047033
     31 H2           0.4300     3.2070    37.1150 h1         1 WYX       0.047033
     32 H3           1.5210     2.2550    38.1260 h1         1 WYX       0.047033
     33 H4           3.6630     2.5660    38.4730 ha         1 WYX       0.122000
     34 H5           6.0820     2.6400    38.7310 ha         1 WYX       0.116000
     35 H6           7.5440     3.0610    36.7640 ha         1 WYX       0.121000
     36 H7           6.5130     3.4970    34.5720 ha         1 WYX       0.134000
     37 H8           2.1520     0.8550    32.1540 h4         1 WYX       0.030100
     38 H11         -0.0210     0.5040    37.9460 h4         1 WYX       0.058100
     39 H13         -2.5710    -4.4190    40.1940 hc         1 WYX       0.061700
     40 H14         -1.3590    -4.1770    38.9590 hc         1 WYX       0.061700
     41 H15         -2.9970    -4.8670    37.2120 h1         1 WYX       0.042700
     42 H16         -2.7270    -6.1230    38.4010 h1         1 WYX       0.042700
     43 H20         -4.8680    -1.7530    38.5940 hc         1 WYX       0.061700
     44 H21         -4.3470    -2.8050    37.2880 hc         1 WYX       0.061700
     45 H9          -0.4640    -1.5940    34.5970 hn         1 WYX       0.515000
     46 H12         -2.9740    -2.1950    39.9250 h1         1 WYX       0.089700
     47 H17         -5.0990    -5.5610    37.8480 hn         1 WYX       0.411000
     48 H19         -5.1620    -3.7550    40.0660 h1         1 WYX       0.042700
     49 H18         -6.1830    -3.8380    38.6510 h1         1 WYX       0.042700
     50 H23          2.4030     4.6830    32.1230 h1         1 WYX       0.047033
     51 H24          2.9690     3.2250    31.2990 h1         1 WYX       0.047033
     52 H22          1.3520     3.2720    32.0170 h1         1 WYX       0.047033
     53 O1           4.5860     4.5580    33.3120 o          1 WYX      -0.553000
     54 H10         -2.1580    -2.8240    36.2430 h4         1 WYX       0.154000
@<TRIPOS>BOND
     1     1    16 1   
     2     1    30 1   
     3     1    31 1   
     4     1    32 1   
     5     2     3 ar  
     6     2    16 1   
     7     2    17 ar  
     8     3     4 ar  
     9     3    33 1   
    10     4     5 ar  
    11     4    34 1   
    12     5     6 ar  
    13     5    35 1   
    14     6    17 ar  
    15     6    36 1   
    16     7    17 1   
    17     7    18 1   
    18     7    53 2   
    19     8     9 ar  
    20     8    18 1   
    21     8    21 ar  
    22     9    19 ar  
    23     9    37 1   
    24    10    19 ar  
    25    10    20 ar  
    26    10    22 1   
    27    11    23 2   
    28    11    24 1   
    29    11    54 1   
    30    12    23 1   
    31    12    25 2   
    32    12    38 1   
    33    13    14 1   
    34    13    26 1   
    35    13    39 1   
    36    13    40 1   
    37    14    27 1   
    38    14    41 1   
    39    14    42 1   
    40    15    26 1   
    41    15    28 1   
    42    15    43 1   
    43    15    44 1   
    44    16    21 1   
    45    18    29 1   
    46    20    21 ar  
    47    22    23 1   
    48    22    45 1   
    49    24    25 1   
    50    24    26 1   
    51    26    46 1   
    52    27    28 1   
    53    27    47 1   
    54    28    48 1   
    55    28    49 1   
    56    29    50 1   
    57    29    51 1   
    58    29    52 1   
@<TRIPOS>SUBSTRUCTURE
     1 WYX         1 TEMP              0 ****  ****    0 ROOT
