@<TRIPOS>MOLECULE
WYY
   37    39     1     0     0
SMALL
abcg2


@<TRIPOS>ATOM
      1 C20        -46.7550   -28.8820     4.4910 ca         1 WYY      -0.246800
      2 C02        -47.8430   -25.2270    -0.9450 c          1 WYY       0.709000
      3 C04        -46.9790   -26.1010    -0.0130 c3         1 WYY      -0.205400
      4 C05        -46.5140   -27.4330    -0.5880 c3         1 WYY      -0.052400
      5 C06        -45.5900   -28.2410     0.3270 c6         1 WYY      -0.082700
      6 C07        -44.9690   -29.4360    -0.4160 c6         1 WYY      -0.074400
      7 C08        -44.5530   -30.5590     0.5470 c6         1 WYY      -0.093400
      8 C09        -44.2120   -30.0280     1.9320 c6         1 WYY       0.234800
      9 C11        -46.3130   -28.7100     1.5880 c6         1 WYY       0.224800
     10 C12        -45.5600   -29.3210     3.8510 ca         1 WYY       0.441900
     11 C14        -44.6450   -29.6870     5.9540 ca         1 WYY       0.172900
     12 C16        -46.7150   -28.8900     5.9040 ca         1 WYY       0.141500
     13 C18        -48.7580   -28.2150     5.2920 cc         1 WYY      -0.197100
     14 C19        -48.0820   -28.4540     4.1280 cd         1 WYY      -0.181200
     15 N10        -45.3880   -29.3690     2.5120 nh         1 WYY      -0.773300
     16 N13        -44.5290   -29.7300     4.6250 nb         1 WYY      -0.319000
     17 N15        -45.6830   -29.2770     6.6720 nb         1 WYY      -0.257000
     18 N17        -47.9270   -28.4730     6.3640 na         1 WYY      -0.331400
     19 O01        -48.4400   -24.2620    -0.3960 o          1 WYY      -0.741000
     20 O03        -47.8860   -25.5140    -2.1690 o          1 WYY      -0.741000
     21 H042       -46.1070   -25.4980     0.2690 hc         1 WYY       0.020200
     22 H041       -47.5480   -26.2450     0.9080 hc         1 WYY       0.020200
     23 H052       -47.3830   -28.0490    -0.8440 hc         1 WYY       0.045200
     24 H051       -45.9890   -27.2500    -1.5290 hc         1 WYY       0.045200
     25 H061       -44.7800   -27.5800     0.6570 hc         1 WYY       0.049700
     26 H071       -45.6890   -29.8260    -1.1410 hc         1 WYY       0.042200
     27 H072       -44.1070   -29.0850    -0.9890 hc         1 WYY       0.042200
     28 H082       -45.3670   -31.2830     0.6510 hc         1 WYY       0.039200
     29 H081       -43.6940   -31.1070     0.1580 hc         1 WYY       0.039200
     30 H092       -43.9160   -30.8380     2.5920 h1         1 WYY       0.051700
     31 H091       -43.3690   -29.3290     1.8810 h1         1 WYY       0.051700
     32 H112       -46.7400   -27.8520     2.0960 h1         1 WYY       0.056700
     33 H111       -47.1380   -29.3810     1.3140 h1         1 WYY       0.056700
     34 H141       -43.7780   -30.0280     6.5120 h5         1 WYY       0.031100
     35 H181       -49.7690   -27.8780     5.4510 h4         1 WYY       0.214000
     36 H191       -48.5000   -28.3410     3.1440 ha         1 WYY       0.217000
     37 H171       -48.1770   -28.3950     7.3370 hn         1 WYY       0.351000
@<TRIPOS>BOND
     1     1    10 ar  
     2     1    12 ar  
     3     1    14 1   
     4     2     3 1   
     5     2    19 1   
     6     2    20 1   
     7     3     4 1   
     8     3    21 1   
     9     3    22 1   
    10     4     5 1   
    11     4    23 1   
    12     4    24 1   
    13     5     6 1   
    14     5     9 1   
    15     5    25 1   
    16     6     7 1   
    17     6    26 1   
    18     6    27 1   
    19     7     8 1   
    20     7    28 1   
    21     7    29 1   
    22     8    15 1   
    23     8    30 1   
    24     8    31 1   
    25     9    15 1   
    26     9    32 1   
    27     9    33 1   
    28    10    15 1   
    29    10    16 ar  
    30    11    16 ar  
    31    11    17 ar  
    32    11    34 1   
    33    12    17 ar  
    34    12    18 1   
    35    13    14 2   
    36    13    18 1   
    37    13    35 1   
    38    14    36 1   
    39    18    37 1   
@<TRIPOS>SUBSTRUCTURE
     1 WYY         1 TEMP              0 ****  ****    0 ROOT
