@<TRIPOS>MOLECULE
WYY
   37    39     1     0     0
SMALL
No Charge or Current Charge


@<TRIPOS>ATOM
      1 C20        -46.7280   -28.9900     4.6680 ca         1 WYY      -0.246800
      2 C02        -47.4890   -25.0450    -1.0490 c          1 WYY       0.709000
      3 C04        -46.8300   -25.9440     0.0120 c3         1 WYY      -0.205400
      4 C05        -46.4620   -27.3190    -0.6060 c3         1 WYY      -0.052400
      5 C06        -45.6370   -28.2720     0.3150 c6         1 WYY      -0.082700
      6 C07        -45.1810   -29.5390    -0.4650 c6         1 WYY      -0.074400
      7 C08        -44.7740   -30.7070     0.4730 c6         1 WYY      -0.093400
      8 C09        -44.4010   -30.2260     1.8960 c6         1 WYY       0.234800
      9 C11        -46.3860   -28.6670     1.6220 c6         1 WYY       0.224800
     10 C12        -45.5570   -29.2630     3.9320 ca         1 WYY       0.441900
     11 C14        -44.3990   -29.0860     5.9210 ca         1 WYY       0.172900
     12 C16        -46.6580   -28.7660     6.0200 ca         1 WYY       0.141500
     13 C18        -48.8900   -28.6180     5.4330 cc         1 WYY      -0.197100
     14 C19        -48.1290   -28.9050     4.3150 cd         1 WYY      -0.181200
     15 N10        -45.5370   -29.4930     2.5370 nh         1 WYY      -0.773300
     16 N13        -44.3750   -29.3180     4.5870 nb         1 WYY      -0.319000
     17 N15        -45.4860   -28.8080     6.6770 nb         1 WYY      -0.257000
     18 N17        -47.9450   -28.5330     6.4790 na         1 WYY      -0.331400
     19 O01        -48.7010   -25.1110    -1.1890 o          1 WYY      -0.741000
     20 O03        -46.7670   -24.3420    -1.7400 o          1 WYY      -0.741000
     21 H042       -45.8850   -25.5020     0.3510 hc         1 WYY       0.020200
     22 H041       -47.5390   -26.1490     0.8220 hc         1 WYY       0.020200
     23 H052       -47.3870   -27.8190    -0.9220 hc         1 WYY       0.045200
     24 H051       -45.8900   -27.1350    -1.5240 hc         1 WYY       0.045200
     25 H061       -44.7390   -27.7080     0.6040 hc         1 WYY       0.049700
     26 H071       -45.9810   -29.8870    -1.1330 hc         1 WYY       0.042200
     27 H072       -44.3350   -29.2750    -1.1150 hc         1 WYY       0.042200
     28 H082       -45.6080   -31.4180     0.5500 hc         1 WYY       0.039200
     29 H081       -43.9370   -31.2660     0.0350 hc         1 WYY       0.039200
     30 H092       -44.1320   -31.1060     2.4990 h1         1 WYY       0.051700
     31 H091       -43.5130   -29.5790     1.8400 h1         1 WYY       0.051700
     32 H112       -46.6940   -27.7490     2.1430 h1         1 WYY       0.056700
     33 H111       -47.3020   -29.2170     1.3590 h1         1 WYY       0.056700
     34 H141       -43.4430   -29.1280     6.4390 h5         1 WYY       0.031100
     35 H181       -49.9620   -28.4840     5.5670 h4         1 WYY       0.214000
     36 H191       -48.5460   -29.0660     3.3230 ha         1 WYY       0.217000
     37 H171       -48.1660   -28.3340     7.4500 hn         1 WYY       0.351000
@<TRIPOS>BOND
     1     1    10 ar  
     2     1    12 ar  
     3     1    14 1   
     4     2     3 1   
     5     2    19 1   
     6     2    20 1   
     7     3     4 1   
     8     3    21 1   
     9     3    22 1   
    10     4     5 1   
    11     4    23 1   
    12     4    24 1   
    13     5     6 1   
    14     5     9 1   
    15     5    25 1   
    16     6     7 1   
    17     6    26 1   
    18     6    27 1   
    19     7     8 1   
    20     7    28 1   
    21     7    29 1   
    22     8    15 1   
    23     8    30 1   
    24     8    31 1   
    25     9    15 1   
    26     9    32 1   
    27     9    33 1   
    28    10    15 1   
    29    10    16 ar  
    30    11    16 ar  
    31    11    17 ar  
    32    11    34 1   
    33    12    17 ar  
    34    12    18 1   
    35    13    14 2   
    36    13    18 1   
    37    13    35 1   
    38    14    36 1   
    39    18    37 1   
@<TRIPOS>SUBSTRUCTURE
     1 WYY         1 TEMP              0 ****  ****    0 ROOT
