@<TRIPOS>MOLECULE
WZ0
   38    39     1     0     0
SMALL
No Charge or Current Charge


@<TRIPOS>ATOM
      1 C4          20.1980   -11.2480    -4.7140 c3         1 WZ0      -0.097100
      2 C5          19.6470   -13.3250    -8.5280 ca         1 WZ0       0.044000
      3 C6          19.1300   -12.0670    -8.1700 ca         1 WZ0      -0.153000
      4 C7          17.8690   -11.6650    -8.6340 ca         1 WZ0       0.184100
      5 C8          17.0940   -12.4960    -9.4660 ca         1 WZ0      -0.145800
      6 C10         18.8930   -14.1590    -9.3650 ca         1 WZ0      -0.127000
      7 C13         16.2030    -9.9330    -8.6450 c          1 WZ0       0.680300
      8 C1          25.0910   -15.4710    -6.6550 c3         1 WZ0      -0.097100
      9 C11         15.7690   -12.0670    -9.9480 cc         1 WZ0       0.049600
     10 C12         15.3670   -10.8030    -9.5260 cd         1 WZ0      -0.049200
     11 C14         14.9290   -12.9600   -10.8400 c3         1 WZ0      -0.068900
     12 C2          24.3800   -14.1290    -6.8910 c3         1 WZ0       0.021100
     13 C3          21.1040   -12.4700    -4.4640 c3         1 WZ0       0.021100
     14 C9          17.6290   -13.7550    -9.8290 ca         1 WZ0      -0.034000
     15 O1          22.9680   -14.3740    -6.8290 os         1 WZ0      -0.395900
     16 O2          21.0460   -13.3650    -5.5910 os         1 WZ0      -0.395900
     17 O3          20.8750   -13.7790    -8.1030 os         1 WZ0      -0.325400
     18 O4          15.8470    -8.8210    -8.2740 o          1 WZ0      -0.454000
     19 O5          17.4090   -10.4370    -8.2580 os         1 WZ0      -0.333200
     20 P1          21.8790   -13.1800    -6.9760 p5         1 WZ0       1.272200
     21 S1          22.6280   -11.4050    -7.3550 s          1 WZ0      -0.634000
     22 Cl1         13.8300   -10.1040    -9.9890 cl         1 WZ0      -0.142000
     23 H1          20.1070   -10.6580    -3.7940 hc         1 WZ0       0.055033
     24 H2          20.6060   -10.5890    -5.4870 hc         1 WZ0       0.055033
     25 H3          19.1900   -11.5650    -5.0110 hc         1 WZ0       0.055033
     26 H4          19.6890   -11.3790    -7.5460 ha         1 WZ0       0.160000
     27 H5          19.2860   -15.1310    -9.6530 ha         1 WZ0       0.142000
     28 H6          26.1780   -15.3380    -6.6920 hc         1 WZ0       0.055033
     29 H7          24.8290   -15.8800    -5.6710 hc         1 WZ0       0.055033
     30 H8          24.8070   -16.2000    -7.4230 hc         1 WZ0       0.055033
     31 H9          13.9620   -12.5230   -11.1060 hc         1 WZ0       0.063367
     32 H10         15.4540   -13.1730   -11.7780 hc         1 WZ0       0.063367
     33 H11         14.7210   -13.9150   -10.3430 hc         1 WZ0       0.063367
     34 H12         24.6670   -13.7310    -7.8740 h1         1 WZ0       0.056700
     35 H13         24.6890   -13.4110    -6.1190 h1         1 WZ0       0.056700
     36 H14         20.7550   -12.9910    -3.5630 h1         1 WZ0       0.056700
     37 H15         22.1330   -12.1350    -4.2760 h1         1 WZ0       0.056700
     38 H16         17.0780   -14.4360   -10.4730 ha         1 WZ0       0.130000
@<TRIPOS>BOND
     1     1    13 1   
     2     1    23 1   
     3     1    24 1   
     4     1    25 1   
     5     2     3 ar  
     6     2     6 ar  
     7     2    17 1   
     8     3     4 ar  
     9     3    26 1   
    10     4     5 ar  
    11     4    19 1   
    12     5     9 1   
    13     5    14 ar  
    14     6    14 ar  
    15     6    27 1   
    16     7    10 1   
    17     7    18 2   
    18     7    19 1   
    19     8    12 1   
    20     8    28 1   
    21     8    29 1   
    22     8    30 1   
    23     9    10 2   
    24     9    11 1   
    25    10    22 1   
    26    11    31 1   
    27    11    32 1   
    28    11    33 1   
    29    12    15 1   
    30    12    34 1   
    31    12    35 1   
    32    13    16 1   
    33    13    36 1   
    34    13    37 1   
    35    14    38 1   
    36    15    20 1   
    37    16    20 1   
    38    17    20 1   
    39    20    21 2   
@<TRIPOS>SUBSTRUCTURE
     1 WZ0         1 TEMP              0 ****  ****    0 ROOT
