@<TRIPOS>MOLECULE
WZ0
   38    39     1     0     0
SMALL
abcg2


@<TRIPOS>ATOM
      1 C4          20.8790   -10.8370    -3.8360 c3         1 WZ0      -0.097100
      2 C5          19.4610   -13.4000    -8.1800 ca         1 WZ0       0.044000
      3 C6          18.4400   -12.8050    -7.4640 ca         1 WZ0      -0.153000
      4 C7          17.3130   -12.3910    -8.1600 ca         1 WZ0       0.184100
      5 C8          17.1840   -12.5520    -9.5440 ca         1 WZ0      -0.145800
      6 C10         19.3800   -13.5830    -9.5590 ca         1 WZ0      -0.127000
      7 C13         15.1430   -11.3830    -7.9680 c          1 WZ0       0.680300
      8 C1          24.4250   -15.7670    -6.4280 c3         1 WZ0      -0.097100
      9 C11         15.9700   -12.0980   -10.1920 cc         1 WZ0       0.049600
     10 C12         15.0080   -11.5440    -9.4090 cd         1 WZ0      -0.049200
     11 C14         15.8340   -12.2590   -11.6700 c3         1 WZ0      -0.068900
     12 C2          23.6580   -14.8080    -7.3030 c3         1 WZ0       0.021100
     13 C3          21.8080   -11.2480    -4.9510 c3         1 WZ0       0.021100
     14 C9          18.2490   -13.1600   -10.2290 ca         1 WZ0      -0.034000
     15 O1          22.7780   -14.0260    -6.4390 os         1 WZ0      -0.395900
     16 O2          21.1590   -12.3240    -5.6960 os         1 WZ0      -0.395900
     17 O3          20.5750   -13.8810    -7.5100 os         1 WZ0      -0.325400
     18 O4          14.3230   -10.9040    -7.2190 o          1 WZ0      -0.454000
     19 O5          16.3200   -11.8190    -7.4210 os         1 WZ0      -0.333200
     20 P1          21.7820   -12.9440    -7.0050 p5         1 WZ0       1.272200
     21 S1          22.4660   -11.7060    -8.3210 s          1 WZ0      -0.634000
     22 CL1         13.4990   -10.9660   -10.0480 cl         1 WZ0      -0.142000
     23 H1          21.3440   -10.0320    -3.2640 hc         1 WZ0       0.055033
     24 H2          19.9310   -10.4760    -4.2360 hc         1 WZ0       0.055033
     25 H3          20.6850   -11.6730    -3.1630 hc         1 WZ0       0.055033
     26 H4          18.5060   -12.6680    -6.3940 ha         1 WZ0       0.160000
     27 H5          20.2000   -14.0520   -10.0830 ha         1 WZ0       0.142000
     28 H6          25.0940   -16.3630    -7.0510 hc         1 WZ0       0.055033
     29 H7          25.0250   -15.2270    -5.6940 hc         1 WZ0       0.055033
     30 H8          23.7470   -16.4420    -5.9040 hc         1 WZ0       0.055033
     31 H9          14.8890   -11.8720   -12.0340 hc         1 WZ0       0.063367
     32 H10         16.6480   -11.7360   -12.1780 hc         1 WZ0       0.063367
     33 H11         15.9110   -13.3140   -11.9400 hc         1 WZ0       0.063367
     34 H12         23.0400   -15.3340    -8.0320 h1         1 WZ0       0.056700
     35 H13         24.3170   -14.1160    -7.8270 h1         1 WZ0       0.056700
     36 H14         22.7560   -11.6270    -4.5690 h1         1 WZ0       0.056700
     37 H15         22.0020   -10.4290    -5.6430 h1         1 WZ0       0.056700
     38 H16         18.1870   -13.3030   -11.2980 ha         1 WZ0       0.130000
@<TRIPOS>BOND
     1     1    13 1   
     2     1    23 1   
     3     1    24 1   
     4     1    25 1   
     5     2     3 ar  
     6     2     6 ar  
     7     2    17 1   
     8     3     4 ar  
     9     3    26 1   
    10     4     5 ar  
    11     4    19 1   
    12     5     9 1   
    13     5    14 ar  
    14     6    14 ar  
    15     6    27 1   
    16     7    10 1   
    17     7    18 2   
    18     7    19 1   
    19     8    12 1   
    20     8    28 1   
    21     8    29 1   
    22     8    30 1   
    23     9    10 2   
    24     9    11 1   
    25    10    22 1   
    26    11    31 1   
    27    11    32 1   
    28    11    33 1   
    29    12    15 1   
    30    12    34 1   
    31    12    35 1   
    32    13    16 1   
    33    13    36 1   
    34    13    37 1   
    35    14    38 1   
    36    15    20 1   
    37    16    20 1   
    38    17    20 1   
    39    20    21 2   
@<TRIPOS>SUBSTRUCTURE
     1 WZ0         1 TEMP              0 ****  ****    0 ROOT
