@<TRIPOS>MOLECULE
WZ3
   69    71     1     0     0
SMALL
bcc


@<TRIPOS>ATOM
      1 O21          6.1280     2.0330     1.0780 oh         1 WZ3      -0.569800
      2 C21          5.0800     1.7700     0.1790 c6         1 WZ3       0.101100
      3 C31          5.6500     1.0130    -1.0150 c6         1 WZ3       0.119100
      4 O31          6.7310     1.6850    -1.6160 oh         1 WZ3      -0.590800
      5 C41          6.1400    -0.3680    -0.5930 c6         1 WZ3       0.126100
      6 O41          6.5320    -1.1300    -1.7110 oh         1 WZ3      -0.601800
      7 C51          5.0000    -1.1150     0.1000 c6         1 WZ3       0.144100
      8 C61          5.4530    -2.4460     0.6620 c3         1 WZ3       0.146400
      9 O61          4.3380    -3.1160     1.2010 oh         1 WZ3      -0.596800
     10 O51          4.4970    -0.3510     1.1850 os         1 WZ3      -0.413600
     11 C11          4.0040     0.9140     0.8550 c6         1 WZ3       0.306900
     12 O11          2.9070     0.8580     0.0040 os         1 WZ3      -0.414600
     13 C32          1.6820     0.4720     0.5820 c6         1 WZ3       0.163100
     14 C42          0.6040     1.4450     0.1170 c6         1 WZ3       0.109100
     15 O42          0.9340     2.7210     0.6110 oh         1 WZ3      -0.598800
     16 C22          1.3210    -0.9720     0.2470 c6         1 WZ3       0.110100
     17 O22          1.3560    -1.1240    -1.1470 oh         1 WZ3      -0.578800
     18 C12         -0.0690    -1.2550     0.8190 c6         1 WZ3       0.309900
     19 O12         -0.4380    -2.5290     0.4490 os         1 WZ3      -0.402600
     20 C72         -1.6240    -3.0130     1.0520 c3         1 WZ3       0.128700
     21 O52         -1.0080    -0.3490     0.3100 os         1 WZ3      -0.421600
     22 C52         -0.7490     0.9850     0.6770 c6         1 WZ3       0.131100
     23 C62         -1.9030     1.8220     0.1700 c3         1 WZ3       0.145400
     24 O62         -3.0500     1.4290     0.8930 os         1 WZ3      -0.442600
     25 C13         -4.2850     1.7850     0.3630 c6         1 WZ3       0.310900
     26 O53         -4.5180     1.2290    -0.8980 os         1 WZ3      -0.410600
     27 C53         -4.4800    -0.1880    -0.9510 c6         1 WZ3       0.154100
     28 C63         -4.7380    -0.5740    -2.3930 c3         1 WZ3       0.044700
     29 S63         -3.5550     0.3140    -3.4630 sh         1 WZ3      -0.387900
     30 C43         -5.5160    -0.7900    -0.0010 c6         1 WZ3       0.125100
     31 O43         -5.3330    -2.1850    -0.0180 oh         1 WZ3      -0.603800
     32 C33         -5.3260    -0.2190     1.4010 c6         1 WZ3       0.119100
     33 O33         -6.3450    -0.7500     2.2160 oh         1 WZ3      -0.590800
     34 C23         -5.3380     1.3080     1.3690 c6         1 WZ3       0.103100
     35 O23         -6.6180     1.7370     0.9850 oh         1 WZ3      -0.566800
     36 HO21         5.7940     2.6010     1.7800 ho         1 WZ3       0.404000
     37 H21          4.6100     2.7010    -0.1680 h1         1 WZ3       0.049700
     38 H31          4.8350     0.8660    -1.7360 h1         1 WZ3       0.065700
     39 HO31         6.3880     2.4080    -2.1480 ho         1 WZ3       0.409000
     40 H41          6.9740    -0.2560     0.1150 h1         1 WZ3       0.067700
     41 HO41         7.2100    -0.6350    -2.1830 ho         1 WZ3       0.423000
     42 H51          4.2080    -1.2940    -0.6410 h1         1 WZ3       0.076700
     43 H61          5.9200    -3.0210    -0.1440 h1         1 WZ3       0.036200
     44 H61A         6.2280    -2.2660     1.4210 h1         1 WZ3       0.036200
     45 HO61         4.6290    -3.9820     1.5020 ho         1 WZ3       0.404000
     46 H11          3.7210     1.3670     1.8160 h2         1 WZ3       0.068700
     47 H32          1.7430     0.5450     1.6790 h1         1 WZ3       0.052700
     48 H42          0.5590     1.4380    -0.9790 h1         1 WZ3       0.079700
     49 HO42         0.6870     3.3830    -0.0400 ho         1 WZ3       0.411000
     50 H22          2.0340    -1.6440     0.7440 h1         1 WZ3       0.078700
     51 HO22         1.0820    -2.0210    -1.3620 ho         1 WZ3       0.423000
     52 H12         -0.0290    -1.1630     1.9220 h2         1 WZ3       0.023700
     53 H72         -1.6520    -4.0890     0.8890 h1         1 WZ3       0.038033
     54 H72A        -1.6270    -2.8260     2.1310 h1         1 WZ3       0.038033
     55 H72B        -2.5260    -2.5730     0.6210 h1         1 WZ3       0.038033
     56 H52         -0.7060     1.0820     1.7750 h1         1 WZ3       0.050700
     57 H62         -1.7010     2.8870     0.3280 h1         1 WZ3       0.051700
     58 H62A        -2.0230     1.6560    -0.9070 h1         1 WZ3       0.051700
     59 H13         -4.3570     2.8720     0.2110 h2         1 WZ3       0.067700
     60 H53         -3.4850    -0.5520    -0.6630 h1         1 WZ3       0.084700
     61 H63         -4.5910    -1.6450    -2.5150 h1         1 WZ3       0.074200
     62 H63A        -5.7600    -0.3280    -2.6860 h1         1 WZ3       0.074200
     63 HS63        -3.5970    -0.5380    -4.4930 hs         1 WZ3       0.200800
     64 H43         -6.5220    -0.5240    -0.3600 h1         1 WZ3       0.070700
     65 HO43        -5.9020    -2.5670     0.6580 ho         1 WZ3       0.421000
     66 H33         -4.3390    -0.5360     1.7620 h1         1 WZ3       0.061700
     67 HO33        -6.0520    -0.7280     3.1310 ho         1 WZ3       0.407000
     68 H23         -5.0690     1.6940     2.3620 h1         1 WZ3       0.046700
     69 HO23        -6.6670     2.6920     1.0870 ho         1 WZ3       0.404000
@<TRIPOS>BOND
     1     1     2 1   
     2     1    36 1   
     3     2     3 1   
     4     2    11 1   
     5     2    37 1   
     6     3     4 1   
     7     3     5 1   
     8     3    38 1   
     9     4    39 1   
    10     5     6 1   
    11     5     7 1   
    12     5    40 1   
    13     6    41 1   
    14     7     8 1   
    15     7    10 1   
    16     7    42 1   
    17     8     9 1   
    18     8    43 1   
    19     8    44 1   
    20     9    45 1   
    21    10    11 1   
    22    11    12 1   
    23    11    46 1   
    24    12    13 1   
    25    13    14 1   
    26    13    16 1   
    27    13    47 1   
    28    14    15 1   
    29    14    22 1   
    30    14    48 1   
    31    15    49 1   
    32    16    17 1   
    33    16    18 1   
    34    16    50 1   
    35    17    51 1   
    36    18    19 1   
    37    18    21 1   
    38    18    52 1   
    39    19    20 1   
    40    20    53 1   
    41    20    54 1   
    42    20    55 1   
    43    21    22 1   
    44    22    23 1   
    45    22    56 1   
    46    23    24 1   
    47    23    57 1   
    48    23    58 1   
    49    24    25 1   
    50    25    26 1   
    51    25    34 1   
    52    25    59 1   
    53    26    27 1   
    54    27    28 1   
    55    27    30 1   
    56    27    60 1   
    57    28    29 1   
    58    28    61 1   
    59    28    62 1   
    60    29    63 1   
    61    30    31 1   
    62    30    32 1   
    63    30    64 1   
    64    31    65 1   
    65    32    33 1   
    66    32    34 1   
    67    32    66 1   
    68    33    67 1   
    69    34    35 1   
    70    34    68 1   
    71    35    69 1   
@<TRIPOS>SUBSTRUCTURE
     1 WZ3         1 TEMP              0 ****  ****    0 ROOT
