@<TRIPOS>MOLECULE
WZ3
   69    71     1     0     0
SMALL
No Charge or Current Charge


@<TRIPOS>ATOM
      1 O21          6.5250     1.8280     1.3480 oh         1 WZ3      -0.692000
      2 C21          5.3890     1.8270     0.4430 c6         1 WZ3       0.124300
      3 C31          5.8520     1.3040    -0.9490 c6         1 WZ3       0.142300
      4 O31          6.9850     2.0670    -1.4040 oh         1 WZ3      -0.653000
      5 C41          6.2200    -0.2090    -0.8680 c6         1 WZ3       0.149300
      6 O41          6.6130    -0.6860    -2.1720 oh         1 WZ3      -0.724000
      7 C51          5.0200    -1.0180    -0.2830 c6         1 WZ3       0.167300
      8 C61          5.3880    -2.5250    -0.0660 c3         1 WZ3       0.169600
      9 O61          4.3460    -3.2970     0.5690 oh         1 WZ3      -0.719000
     10 O51          4.6050    -0.4570     0.9960 os         1 WZ3      -0.460000
     11 C11          4.2030     0.9310     0.9530 c6         1 WZ3       0.353300
     12 O11          3.0410     1.0930     0.1070 os         1 WZ3      -0.461000
     13 C32          1.7770     0.6350     0.6630 c6         1 WZ3       0.186300
     14 C42          0.6020     1.4620     0.0580 c6         1 WZ3       0.132300
     15 O42          0.8260     2.8770     0.2460 oh         1 WZ3      -0.721000
     16 C22          1.5140    -0.8960     0.4690 c6         1 WZ3       0.133300
     17 O22          1.5520    -1.2830    -0.9310 oh         1 WZ3      -0.701000
     18 C12          0.1260    -1.2380     1.1050 c6         1 WZ3       0.356300
     19 O12         -0.1910    -2.6180     0.8510 os         1 WZ3      -0.449000
     20 C72         -1.3910    -3.1170     1.4680 c3         1 WZ3       0.151900
     21 O52         -0.9000    -0.4340     0.4920 os         1 WZ3      -0.468000
     22 C52         -0.7410     0.9920     0.6980 c6         1 WZ3       0.154300
     23 C62         -1.9820     1.6950     0.0720 c3         1 WZ3       0.168600
     24 O62         -3.1590     1.3410     0.8300 os         1 WZ3      -0.489000
     25 C13         -4.4250     1.7480     0.2810 c6         1 WZ3       0.357300
     26 O53         -4.6340     1.0650    -0.9770 os         1 WZ3      -0.457000
     27 C53         -4.6730    -0.3840    -0.8740 c6         1 WZ3       0.177300
     28 C63         -4.8200    -0.9500    -2.3150 c3         1 WZ3       0.092600
     29 S63         -3.4560    -0.5630    -3.5210 sh         1 WZ3      -0.435800
     30 C43         -5.8380    -0.8250     0.0650 c6         1 WZ3       0.148300
     31 O43         -5.8780    -2.2560     0.2430 oh         1 WZ3      -0.726000
     32 C33         -5.6940    -0.1230     1.4510 c6         1 WZ3       0.142300
     33 O33         -6.8140    -0.4500     2.2940 oh         1 WZ3      -0.653000
     34 C23         -5.5970     1.4230     1.2770 c6         1 WZ3       0.126300
     35 O23         -6.8800     1.9280     0.8200 oh         1 WZ3      -0.689000
     36 HO21         6.2210     2.2000     2.2090 ho         1 WZ3       0.503000
     37 H21          5.0100     2.8520     0.3200 h1         1 WZ3       0.049700
     38 H31          5.0160     1.4190    -1.6560 h1         1 WZ3       0.065700
     39 HO31         7.4620     2.3090    -0.5760 ho         1 WZ3       0.448000
     40 H41          7.0640    -0.3180    -0.1690 h1         1 WZ3       0.067700
     41 HO41         7.1300     0.0560    -2.5700 ho         1 WZ3       0.522000
     42 H51          4.1790    -0.9700    -0.9880 h1         1 WZ3       0.076700
     43 H61          5.6290    -2.9610    -1.0450 h1         1 WZ3       0.036200
     44 H61A         6.3040    -2.5660     0.5400 h1         1 WZ3       0.036200
     45 HO61         4.7020    -4.2070     0.6990 ho         1 WZ3       0.503000
     46 H11          3.9470     1.2600     1.9720 h2         1 WZ3       0.068700
     47 H32          1.7880     0.8390     1.7450 h1         1 WZ3       0.052700
     48 H42          0.5540     1.2380    -1.0190 h1         1 WZ3       0.079700
     49 HO42         1.7550     3.0410    -0.0410 ho         1 WZ3       0.510000
     50 H22          2.2730    -1.4550     1.0340 h1         1 WZ3       0.078700
     51 HO22         0.9230    -2.0400    -0.9990 ho         1 WZ3       0.522000
     52 H12          0.1510    -1.0530     2.1890 h2         1 WZ3       0.023700
     53 H72         -1.5220    -4.1820     1.2400 h1         1 WZ3       0.038033
     54 H72A        -1.3450    -3.0050     2.5590 h1         1 WZ3       0.038033
     55 H72B        -2.2760    -2.5810     1.1010 h1         1 WZ3       0.038033
     56 H52         -0.7290     1.2020     1.7780 h1         1 WZ3       0.050700
     57 H62         -1.8330     2.7820     0.0900 h1         1 WZ3       0.051700
     58 H62A        -2.0690     1.3790    -0.9760 h1         1 WZ3       0.051700
     59 H13         -4.4030     2.8340     0.1020 h2         1 WZ3       0.067700
     60 H53         -3.7180    -0.7470    -0.4650 h1         1 WZ3       0.084700
     61 H63         -4.8980    -2.0420    -2.2470 h1         1 WZ3       0.074200
     62 H63A        -5.7630    -0.5790    -2.7360 h1         1 WZ3       0.074200
     63 HS63        -4.0010    -1.2180    -4.5760 hs         1 WZ3       0.200800
     64 H43         -6.7800    -0.4850    -0.3930 h1         1 WZ3       0.070700
     65 HO43        -6.4170    -2.3980     1.0590 ho         1 WZ3       0.520000
     66 H33         -4.7610    -0.4750     1.9200 h1         1 WZ3       0.061700
     67 HO33        -7.4730     0.2590     2.1060 ho         1 WZ3       0.446000
     68 H23         -5.3470     1.8690     2.2510 h1         1 WZ3       0.046700
     69 HO23        -6.8010     2.9070     0.7330 ho         1 WZ3       0.503000
@<TRIPOS>BOND
     1     1     2 1   
     2     1    36 1   
     3     2     3 1   
     4     2    11 1   
     5     2    37 1   
     6     3     4 1   
     7     3     5 1   
     8     3    38 1   
     9     4    39 1   
    10     5     6 1   
    11     5     7 1   
    12     5    40 1   
    13     6    41 1   
    14     7     8 1   
    15     7    10 1   
    16     7    42 1   
    17     8     9 1   
    18     8    43 1   
    19     8    44 1   
    20     9    45 1   
    21    10    11 1   
    22    11    12 1   
    23    11    46 1   
    24    12    13 1   
    25    13    14 1   
    26    13    16 1   
    27    13    47 1   
    28    14    15 1   
    29    14    22 1   
    30    14    48 1   
    31    15    49 1   
    32    16    17 1   
    33    16    18 1   
    34    16    50 1   
    35    17    51 1   
    36    18    19 1   
    37    18    21 1   
    38    18    52 1   
    39    19    20 1   
    40    20    53 1   
    41    20    54 1   
    42    20    55 1   
    43    21    22 1   
    44    22    23 1   
    45    22    56 1   
    46    23    24 1   
    47    23    57 1   
    48    23    58 1   
    49    24    25 1   
    50    25    26 1   
    51    25    34 1   
    52    25    59 1   
    53    26    27 1   
    54    27    28 1   
    55    27    30 1   
    56    27    60 1   
    57    28    29 1   
    58    28    61 1   
    59    28    62 1   
    60    29    63 1   
    61    30    31 1   
    62    30    32 1   
    63    30    64 1   
    64    31    65 1   
    65    32    33 1   
    66    32    34 1   
    67    32    66 1   
    68    33    67 1   
    69    34    35 1   
    70    34    68 1   
    71    35    69 1   
@<TRIPOS>SUBSTRUCTURE
     1 WZ3         1 TEMP              0 ****  ****    0 ROOT
