@<TRIPOS>MOLECULE
WZ4
  117   121     1     0     0
SMALL
No Charge or Current Charge


@<TRIPOS>ATOM
      1 O21         -3.2850    -1.6220    -0.3340 oh         1 WZ4      -0.747000
      2 C21         -4.5730    -2.2030    -0.0350 c6         1 WZ4       0.123300
      3 C31         -4.5200    -3.0150     1.2960 c6         1 WZ4       0.149300
      4 O31         -3.9600    -2.2130     2.3470 oh         1 WZ4      -0.682000
      5 C41         -5.9520    -3.5370     1.6730 c6         1 WZ4       0.146300
      6 O41         -6.3400    -4.5900     0.7600 oh         1 WZ4      -0.707000
      7 C51         -7.0120    -2.3780     1.6190 c6         1 WZ4       0.163300
      8 C61         -6.9440    -1.3460     2.8020 c3         1 WZ4       0.136600
      9 O61         -7.9920    -0.3590     2.7430 oh         1 WZ4      -0.712000
     10 O01         -6.9560    -1.6900     0.3360 os         1 WZ4      -0.408000
     11 C11         -5.6760    -1.1020     0.0290 c6         1 WZ4       0.262300
     12 S62         -5.8270    -0.2080    -1.5810 ss         1 WZ4      -0.398000
     13 C62         -6.5610     1.3920    -0.9930 c3         1 WZ4       0.065600
     14 C52         -5.4920     2.5030    -0.7970 c6         1 WZ4       0.172300
     15 O02         -4.9860     2.8470    -2.1160 os         1 WZ4      -0.459000
     16 C42         -6.0670     3.7700    -0.0940 c6         1 WZ4       0.148300
     17 O42         -6.5290     3.4820     1.2410 oh         1 WZ4      -0.726000
     18 C32         -4.9770     4.8850    -0.0470 c6         1 WZ4       0.143300
     19 O32         -5.5210     6.0890     0.5240 oh         1 WZ4      -0.651000
     20 C22         -4.4320     5.1770    -1.4770 c6         1 WZ4       0.126300
     21 O22         -5.4780     5.8120    -2.2590 oh         1 WZ4      -0.687000
     22 C12         -3.9270     3.8320    -2.1160 c6         1 WZ4       0.354300
     23 O63         -2.8020     3.3060    -1.3920 os         1 WZ4      -0.484000
     24 C63         -2.0980     2.2060    -2.0060 c3         1 WZ4       0.169600
     25 C53         -1.0890     1.6180    -0.9780 c6         1 WZ4       0.146300
     26 C43         -0.0540     0.6360    -1.6090 c6         1 WZ4       0.123300
     27 O43          0.7590     1.2780    -2.6110 oh         1 WZ4      -0.719000
     28 O53         -1.8590     0.9110     0.0250 os         1 WZ4      -0.487000
     29 C13         -1.0740     0.4280     1.1300 c6         1 WZ4       0.353300
     30 O13         -1.9780    -0.1370     2.0930 os         1 WZ4      -0.437000
     31 C73         -2.8570     0.7990     2.7440 c3         1 WZ4       0.147900
     32 C23         -0.0380    -0.6370     0.6250 c6         1 WZ4       0.152300
     33 O23         -0.6660    -1.8500     0.1220 oh         1 WZ4      -0.708000
     34 C33          0.8440     0.0460    -0.4770 c6         1 WZ4       0.141300
     35 O14          1.8550    -0.8320    -1.0480 os         1 WZ4      -0.455000
     36 C14          3.1250    -0.8720    -0.3560 c6         1 WZ4       0.355300
     37 O04          2.9920    -1.5510     0.9140 os         1 WZ4      -0.465000
     38 C54          2.6450    -2.9620     0.8460 c6         1 WZ4       0.144300
     39 C64          2.5350    -3.5030     2.3120 c3         1 WZ4       0.158600
     40 O64          1.6510    -2.7340     3.1530 oh         1 WZ4      -0.718000
     41 C44          3.7080    -3.7400     0.0070 c6         1 WZ4       0.100300
     42 O44          3.3750    -5.1410    -0.1540 oh         1 WZ4      -0.726000
     43 C34          3.8330    -3.0750    -1.3940 c6         1 WZ4       0.184300
     44 O34          4.7880    -3.8170    -2.1770 oh         1 WZ4      -0.699000
     45 C24          4.2140    -1.5710    -1.2390 c6         1 WZ4       0.161300
     46 O15          5.5440    -1.4390    -0.6670 os         1 WZ4      -0.408000
     47 C15          6.1260    -0.1260    -0.7020 c6         1 WZ4       0.379300
     48 O55          6.7830     0.0410    -1.9710 os         1 WZ4      -0.447000
     49 C55          7.3530     1.3580    -2.1740 c6         1 WZ4       0.153300
     50 C65          7.9040     1.4310    -3.6370 c3         1 WZ4       0.172600
     51 O65          6.9080     1.1360    -4.6360 oh         1 WZ4      -0.703000
     52 C45          8.4490     1.6170    -1.0910 c6         1 WZ4       0.096300
     53 O45          9.0270     2.9390    -1.1990 oh         1 WZ4      -0.725000
     54 C35          7.8160     1.4380     0.3210 c6         1 WZ4       0.162300
     55 O35          8.8200     1.6460     1.3250 oh         1 WZ4      -0.642000
     56 C25          7.1460     0.0400     0.4670 c6         1 WZ4       0.080700
     57 N25          6.4860    -0.1040     1.7910 ns         1 WZ4      -0.495900
     58 C75          6.2870    -1.2870     2.4650 c          1 WZ4       0.626100
     59 O75          6.7280    -2.3560     2.0700 o          1 WZ4      -0.605100
     60 C85          5.4870    -1.1590     3.7530 c3         1 WZ4      -0.181100
     61 HO21        -3.4710    -0.8780    -0.9580 ho         1 WZ4       0.532000
     62 H21         -4.8570    -2.8980    -0.8400 h1         1 WZ4       0.075700
     63 H31         -3.8690    -3.8860     1.1320 h1         1 WZ4       0.047700
     64 HO31        -3.2520    -1.6680     1.9220 ho         1 WZ4       0.489000
     65 H41         -5.9250    -3.9340     2.7000 h1         1 WZ4       0.055700
     66 HO41        -5.8640    -5.4070     1.0350 ho         1 WZ4       0.506000
     67 H51         -8.0030    -2.8490     1.6930 h1         1 WZ4       0.100700
     68 H61         -7.0160    -1.9090     3.7430 h1         1 WZ4       0.034200
     69 H61A        -5.9710    -0.8430     2.8050 h1         1 WZ4       0.034200
     70 HO61        -7.8660     0.2490     3.5080 ho         1 WZ4       0.502000
     71 H11         -5.4040    -0.3530     0.7870 h2         1 WZ4       0.067700
     72 H62         -7.2970     1.7410    -1.7280 h1         1 WZ4       0.098200
     73 H62A        -7.0880     1.2180    -0.0460 h1         1 WZ4       0.098200
     74 H52         -4.6750     2.0900    -0.1880 h1         1 WZ4       0.068700
     75 H42         -6.9070     4.1370    -0.7040 h1         1 WZ4       0.073700
     76 HO42        -6.5670     4.3600     1.6940 ho         1 WZ4       0.522000
     77 H32         -4.1410     4.5240     0.5720 h1         1 WZ4       0.058700
     78 HO32        -5.8690     6.5880    -0.2520 ho         1 WZ4       0.447000
     79 H22         -3.5700     5.8550    -1.3900 h1         1 WZ4       0.046700
     80 HO22        -5.1080     6.0050    -3.1520 ho         1 WZ4       0.504000
     81 H12         -3.6200     4.0320    -3.1530 h2         1 WZ4       0.067700
     82 H63         -2.7880     1.4110    -2.3180 h1         1 WZ4       0.045700
     83 H63A        -1.5550     2.5560    -2.8940 h1         1 WZ4       0.045700
     84 H53         -0.5560     2.4540    -0.5020 h1         1 WZ4       0.057700
     85 H43         -0.6130    -0.1940    -2.0680 h1         1 WZ4       0.064700
     86 HO43         1.4630     0.6270    -2.8410 ho         1 WZ4       0.512000
     87 H13         -0.5330     1.2680     1.5910 h2         1 WZ4       0.029700
     88 H73         -3.5350     1.2690     2.0190 h1         1 WZ4       0.039367
     89 H73A        -3.4680     0.2900     3.5000 h1         1 WZ4       0.039367
     90 H73B        -2.2840     1.5880     3.2450 h1         1 WZ4       0.039367
     91 H23          0.6100    -0.8780     1.4790 h1         1 WZ4       0.106700
     92 HO23        -1.6440    -1.6610     0.0250 ho         1 WZ4       0.534000
     93 H33          1.3600     0.8970    -0.0070 h1         1 WZ4       0.057700
     94 H14          3.4440     0.1630    -0.1680 h2         1 WZ4       0.070700
     95 H54          1.6610    -3.0670     0.3660 h1         1 WZ4       0.076700
     96 H64          2.1880    -4.5450     2.2680 h1         1 WZ4       0.034700
     97 H64A         3.5440    -3.5150     2.7460 h1         1 WZ4       0.034700
     98 HO64         1.6710    -3.1470     4.0470 ho         1 WZ4       0.502000
     99 H44          4.6790    -3.6400     0.5180 h1         1 WZ4       0.079700
    100 HO44         3.6180    -5.6090     0.6800 ho         1 WZ4       0.509000
    101 H34          2.8470    -3.1250    -1.8800 h1         1 WZ4       0.066700
    102 HO34         4.6420    -4.7510    -1.8940 ho         1 WZ4       0.515000
    103 H24          4.2140    -1.1090    -2.2360 h1         1 WZ4       0.082700
    104 H15          5.3430     0.6380    -0.5960 h2         1 WZ4       0.017700
    105 H55          6.5550     2.1080    -2.0730 h1         1 WZ4       0.055700
    106 H65          8.3080     2.4380    -3.8050 h1         1 WZ4       0.026200
    107 H65A         8.7410     0.7240    -3.7230 h1         1 WZ4       0.026200
    108 HO65         7.3680     1.1300    -5.5080 ho         1 WZ4       0.505000
    109 H45          9.2330     0.8530    -1.2130 h1         1 WZ4       0.063700
    110 HO45         9.7330     2.9070    -1.8890 ho         1 WZ4       0.513000
    111 H35          7.0310     2.2010     0.4350 h1         1 WZ4       0.034700
    112 HO35         9.3390     2.4170     0.9980 ho         1 WZ4       0.456000
    113 H25          7.9160    -0.7380     0.3630 h1         1 WZ4       0.119700
    114 HN25         6.1200     0.7290     2.2360 hn         1 WZ4       0.305500
    115 H85          4.5100    -0.7210     3.5190 hc         1 WZ4       0.061033
    116 H85A         5.3820    -2.1140     4.2810 hc         1 WZ4       0.061033
    117 H85B         5.9440    -0.3910     4.3870 hc         1 WZ4       0.061033
@<TRIPOS>BOND
     1     1     2 1   
     2     1    61 1   
     3     2     3 1   
     4     2    11 1   
     5     2    62 1   
     6     3     4 1   
     7     3     5 1   
     8     3    63 1   
     9     4    64 1   
    10     5     6 1   
    11     5     7 1   
    12     5    65 1   
    13     6    66 1   
    14     7     8 1   
    15     7    10 1   
    16     7    67 1   
    17     8     9 1   
    18     8    68 1   
    19     8    69 1   
    20     9    70 1   
    21    10    11 1   
    22    11    12 1   
    23    11    71 1   
    24    12    13 1   
    25    13    14 1   
    26    13    72 1   
    27    13    73 1   
    28    14    15 1   
    29    14    16 1   
    30    14    74 1   
    31    15    22 1   
    32    16    17 1   
    33    16    18 1   
    34    16    75 1   
    35    17    76 1   
    36    18    19 1   
    37    18    20 1   
    38    18    77 1   
    39    19    78 1   
    40    20    21 1   
    41    20    22 1   
    42    20    79 1   
    43    21    80 1   
    44    22    23 1   
    45    22    81 1   
    46    23    24 1   
    47    24    25 1   
    48    24    82 1   
    49    24    83 1   
    50    25    26 1   
    51    25    28 1   
    52    25    84 1   
    53    26    27 1   
    54    26    34 1   
    55    26    85 1   
    56    27    86 1   
    57    28    29 1   
    58    29    30 1   
    59    29    32 1   
    60    29    87 1   
    61    30    31 1   
    62    31    88 1   
    63    31    89 1   
    64    31    90 1   
    65    32    33 1   
    66    32    34 1   
    67    32    91 1   
    68    33    92 1   
    69    34    35 1   
    70    34    93 1   
    71    35    36 1   
    72    36    37 1   
    73    36    45 1   
    74    36    94 1   
    75    37    38 1   
    76    38    39 1   
    77    38    41 1   
    78    38    95 1   
    79    39    40 1   
    80    39    96 1   
    81    39    97 1   
    82    40    98 1   
    83    41    42 1   
    84    41    43 1   
    85    41    99 1   
    86    42   100 1   
    87    43    44 1   
    88    43    45 1   
    89    43   101 1   
    90    44   102 1   
    91    45    46 1   
    92    45   103 1   
    93    46    47 1   
    94    47    48 1   
    95    47    56 1   
    96    47   104 1   
    97    48    49 1   
    98    49    50 1   
    99    49    52 1   
   100    49   105 1   
   101    50    51 1   
   102    50   106 1   
   103    50   107 1   
   104    51   108 1   
   105    52    53 1   
   106    52    54 1   
   107    52   109 1   
   108    53   110 1   
   109    54    55 1   
   110    54    56 1   
   111    54   111 1   
   112    55   112 1   
   113    56    57 1   
   114    56   113 1   
   115    57    58 1   
   116    57   114 1   
   117    58    59 2   
   118    58    60 1   
   119    60   115 1   
   120    60   116 1   
   121    60   117 1   
@<TRIPOS>SUBSTRUCTURE
     1 WZ4         1 TEMP              0 ****  ****    0 ROOT
