@<TRIPOS>MOLECULE
WZ4
  117   121     1     0     0
SMALL
bcc


@<TRIPOS>ATOM
      1 O21         -3.0680    -1.3400    -1.0930 oh         1 WZ4      -0.624800
      2 C21         -4.3340    -1.9580    -1.0760 c6         1 WZ4       0.100100
      3 C31         -4.3700    -2.9900     0.0530 c6         1 WZ4       0.126100
      4 O31         -4.1310    -2.4290     1.3160 oh         1 WZ4      -0.619800
      5 C41         -5.7640    -3.6300     0.1120 c6         1 WZ4       0.123100
      6 O41         -5.9880    -4.4290    -1.0280 oh         1 WZ4      -0.584800
      7 C51         -6.8790    -2.5830     0.1390 c6         1 WZ4       0.140100
      8 C61         -7.1100    -1.9490     1.5040 c3         1 WZ4       0.113400
      9 O61         -8.2270    -1.0970     1.3930 oh         1 WZ4      -0.589800
     10 O01         -6.6970    -1.6140    -0.8840 os         1 WZ4      -0.361600
     11 C11         -5.4620    -0.9550    -0.8530 c6         1 WZ4       0.191200
     12 S62         -5.4630     0.3060    -2.1500 ss         1 WZ4      -0.302200
     13 C62         -6.1950     1.6770    -1.2070 c3         1 WZ4       0.017700
     14 C52         -5.1520     2.5680    -0.5650 c6         1 WZ4       0.149100
     15 O02         -4.4620     3.2050    -1.6230 os         1 WZ4      -0.412600
     16 C42         -5.7900     3.5940     0.3730 c6         1 WZ4       0.125100
     17 O42         -6.3280     2.8740     1.4560 oh         1 WZ4      -0.603800
     18 C32         -4.7400     4.5970     0.8370 c6         1 WZ4       0.120100
     19 O32         -5.3950     5.5560     1.6330 oh         1 WZ4      -0.588800
     20 C22         -4.0230     5.2190    -0.3600 c6         1 WZ4       0.103100
     21 O22         -4.9460     5.9880    -1.0860 oh         1 WZ4      -0.564800
     22 C12         -3.4560     4.0950    -1.2340 c6         1 WZ4       0.307900
     23 O63         -2.4520     3.4790    -0.4940 os         1 WZ4      -0.437600
     24 C63         -1.6710     2.5260    -1.1800 c3         1 WZ4       0.146400
     25 C53         -0.9200     1.7250    -0.1400 c6         1 WZ4       0.123100
     26 C43          0.1200     0.7740    -0.7440 c6         1 WZ4       0.100100
     27 O43          1.1570     1.4810    -1.3780 oh         1 WZ4      -0.596800
     28 O53         -1.8720     0.9790     0.5870 os         1 WZ4      -0.440600
     29 C13         -1.3230     0.3240     1.7040 c6         1 WZ4       0.306900
     30 O13         -2.3430    -0.2940     2.3910 os         1 WZ4      -0.390600
     31 C73         -3.2720     0.5760     3.0120 c3         1 WZ4       0.124700
     32 C23         -0.3120    -0.7340     1.2590 c6         1 WZ4       0.129100
     33 O23         -0.9050    -1.8350     0.6310 oh         1 WZ4      -0.585800
     34 C33          0.7410    -0.0420     0.3860 c6         1 WZ4       0.118100
     35 O14          1.6220    -0.9930    -0.1650 os         1 WZ4      -0.408600
     36 C14          2.9580    -0.8640     0.1990 c6         1 WZ4       0.308900
     37 O04          3.1950    -1.2500     1.5150 os         1 WZ4      -0.418600
     38 C54          2.9500    -2.6120     1.8180 c6         1 WZ4       0.121100
     39 C64          3.3060    -2.8130     3.2750 c3         1 WZ4       0.135400
     40 O64          2.4700    -2.0020     4.0670 oh         1 WZ4      -0.595800
     41 C44          3.7730    -3.5300     0.9060 c6         1 WZ4       0.077100
     42 O44          3.4000    -4.8810     1.0800 oh         1 WZ4      -0.603800
     43 C34          3.5130    -3.1740    -0.5540 c6         1 WZ4       0.161100
     44 O34          4.3080    -3.9250    -1.4330 oh         1 WZ4      -0.576800
     45 C24          3.7860    -1.6970    -0.7840 c6         1 WZ4       0.138100
     46 O15          5.1570    -1.4720    -0.5340 os         1 WZ4      -0.361600
     47 C15          5.7130    -0.3340    -1.0720 c6         1 WZ4       0.332900
     48 O55          6.3330    -0.6860    -2.2770 os         1 WZ4      -0.400600
     49 C55          6.9150     0.4150    -2.9450 c6         1 WZ4       0.130100
     50 C65          7.4220    -0.0670    -4.2850 c3         1 WZ4       0.149400
     51 O65          6.3300    -0.4970    -5.0600 oh         1 WZ4      -0.580800
     52 C45          8.0370     0.9940    -2.0750 c6         1 WZ4       0.073100
     53 O45          8.5990     2.1550    -2.6460 oh         1 WZ4      -0.602800
     54 C35          7.4780     1.3930    -0.7130 c6         1 WZ4       0.139100
     55 O35          8.4850     1.8060     0.1700 oh         1 WZ4      -0.579800
     56 C25          6.7350     0.2240    -0.0760 c6         1 WZ4       0.080700
     57 N25          6.0810     0.6390     1.1360 ns         1 WZ4      -0.562900
     58 C75          6.0740    -0.0620     2.2880 c          1 WZ4       0.693100
     59 O75          6.6770    -1.1150     2.4360 o          1 WZ4      -0.605100
     60 C85          5.2850     0.5670     3.4080 c3         1 WZ4      -0.181100
     61 HO21        -3.1470    -0.4740    -1.5150 ho         1 WZ4       0.433000
     62 H21         -4.5190    -2.4810    -2.0230 h1         1 WZ4       0.075700
     63 H31         -3.6300    -3.7760    -0.1700 h1         1 WZ4       0.047700
     64 HO31        -3.3120    -1.9180     1.3260 ho         1 WZ4       0.450000
     65 H41         -5.8250    -4.2320     1.0290 h1         1 WZ4       0.055700
     66 HO41        -5.3470    -5.1480    -1.0280 ho         1 WZ4       0.407000
     67 H51         -7.8070    -3.0960    -0.1320 h1         1 WZ4       0.100700
     68 H61         -7.2860    -2.7640     2.2190 h1         1 WZ4       0.034200
     69 H61A        -6.2290    -1.4090     1.8570 h1         1 WZ4       0.034200
     70 HO61        -8.2820    -0.5750     2.1980 ho         1 WZ4       0.403000
     71 H11         -5.2980    -0.4280     0.0950 h2         1 WZ4       0.067700
     72 H62         -6.8130     2.2530    -1.8980 h1         1 WZ4       0.098200
     73 H62A        -6.8600     1.2440    -0.4600 h1         1 WZ4       0.098200
     74 H52         -4.4570     1.9540     0.0270 h1         1 WZ4       0.068700
     75 H42         -6.5800     4.1330    -0.1740 h1         1 WZ4       0.073700
     76 HO42        -6.7110     3.5070     2.0710 ho         1 WZ4       0.423000
     77 H32         -3.9920     4.0510     1.4260 h1         1 WZ4       0.058700
     78 HO32        -4.7450     5.9920     2.1920 ho         1 WZ4       0.408000
     79 H22         -3.1850     5.8330    -0.0020 h1         1 WZ4       0.046700
     80 HO22        -4.4670     6.5080    -1.7380 ho         1 WZ4       0.405000
     81 H12         -3.0600     4.5030    -2.1750 h2         1 WZ4       0.067700
     82 H63         -2.2910     1.8550    -1.7860 h1         1 WZ4       0.045700
     83 H63A        -0.9650     3.0260    -1.8530 h1         1 WZ4       0.045700
     84 H53         -0.3950     2.4280     0.5290 h1         1 WZ4       0.057700
     85 H43         -0.3830     0.0970    -1.4500 h1         1 WZ4       0.064700
     86 HO43         0.9570     1.5640    -2.3140 ho         1 WZ4       0.413000
     87 H13         -0.8100     1.0650     2.3450 h2         1 WZ4       0.029700
     88 H73         -3.8890     1.1180     2.2930 h1         1 WZ4       0.039367
     89 H73A        -3.9220    -0.0400     3.6300 h1         1 WZ4       0.039367
     90 H73B        -2.7650     1.3040     3.6530 h1         1 WZ4       0.039367
     91 H23          0.1930    -1.1180     2.1520 h1         1 WZ4       0.106700
     92 HO23        -1.5350    -1.5540    -0.0530 ho         1 WZ4       0.435000
     93 H33          1.2850     0.6620     1.0330 h1         1 WZ4       0.057700
     94 H14          3.2690     0.1880     0.1540 h2         1 WZ4       0.070700
     95 H54          1.8850    -2.8520     1.6790 h1         1 WZ4       0.076700
     96 H64          3.1780    -3.8740     3.5210 h1         1 WZ4       0.034700
     97 H64A         4.3670    -2.5680     3.4160 h1         1 WZ4       0.034700
     98 HO64         2.7210    -2.1280     4.9870 ho         1 WZ4       0.403000
     99 H44          4.8390    -3.3870     1.1250 h1         1 WZ4       0.079700
    100 HO44         3.9830    -5.2880     1.7270 ho         1 WZ4       0.410000
    101 H34          2.4440    -3.3430    -0.7560 h1         1 WZ4       0.066700
    102 HO34         4.1110    -4.8540    -1.2800 ho         1 WZ4       0.416000
    103 H24          3.5200    -1.4190    -1.8120 h1         1 WZ4       0.082700
    104 H15          4.9500     0.4430    -1.2650 h2         1 WZ4       0.017700
    105 H55          6.1580     1.2010    -3.1090 h1         1 WZ4       0.055700
    106 H65          7.9570     0.7580    -4.7690 h1         1 WZ4       0.026200
    107 H65A         8.1520    -0.8720    -4.1190 h1         1 WZ4       0.026200
    108 HO65         6.6630    -0.7730    -5.9180 ho         1 WZ4       0.406000
    109 H45          8.7990     0.2160    -1.9250 h1         1 WZ4       0.063700
    110 HO45         9.3690     1.9110    -3.1670 ho         1 WZ4       0.414000
    111 H35          6.7510     2.2060    -0.8860 h1         1 WZ4       0.034700
    112 HO35         8.9410     2.5530    -0.2310 ho         1 WZ4       0.417000
    113 H25          7.4480    -0.5700     0.1640 h1         1 WZ4       0.119700
    114 HN25         5.5640     1.5040     1.1070 hn         1 WZ4       0.305500
    115 H85          4.4210    -0.0570     3.6330 hc         1 WZ4       0.061033
    116 H85A         5.9020     0.6160     4.3040 hc         1 WZ4       0.061033
    117 H85B         4.9250     1.5690     3.1790 hc         1 WZ4       0.061033
@<TRIPOS>BOND
     1     1     2 1   
     2     1    61 1   
     3     2     3 1   
     4     2    11 1   
     5     2    62 1   
     6     3     4 1   
     7     3     5 1   
     8     3    63 1   
     9     4    64 1   
    10     5     6 1   
    11     5     7 1   
    12     5    65 1   
    13     6    66 1   
    14     7     8 1   
    15     7    10 1   
    16     7    67 1   
    17     8     9 1   
    18     8    68 1   
    19     8    69 1   
    20     9    70 1   
    21    10    11 1   
    22    11    12 1   
    23    11    71 1   
    24    12    13 1   
    25    13    14 1   
    26    13    72 1   
    27    13    73 1   
    28    14    15 1   
    29    14    16 1   
    30    14    74 1   
    31    15    22 1   
    32    16    17 1   
    33    16    18 1   
    34    16    75 1   
    35    17    76 1   
    36    18    19 1   
    37    18    20 1   
    38    18    77 1   
    39    19    78 1   
    40    20    21 1   
    41    20    22 1   
    42    20    79 1   
    43    21    80 1   
    44    22    23 1   
    45    22    81 1   
    46    23    24 1   
    47    24    25 1   
    48    24    82 1   
    49    24    83 1   
    50    25    26 1   
    51    25    28 1   
    52    25    84 1   
    53    26    27 1   
    54    26    34 1   
    55    26    85 1   
    56    27    86 1   
    57    28    29 1   
    58    29    30 1   
    59    29    32 1   
    60    29    87 1   
    61    30    31 1   
    62    31    88 1   
    63    31    89 1   
    64    31    90 1   
    65    32    33 1   
    66    32    34 1   
    67    32    91 1   
    68    33    92 1   
    69    34    35 1   
    70    34    93 1   
    71    35    36 1   
    72    36    37 1   
    73    36    45 1   
    74    36    94 1   
    75    37    38 1   
    76    38    39 1   
    77    38    41 1   
    78    38    95 1   
    79    39    40 1   
    80    39    96 1   
    81    39    97 1   
    82    40    98 1   
    83    41    42 1   
    84    41    43 1   
    85    41    99 1   
    86    42   100 1   
    87    43    44 1   
    88    43    45 1   
    89    43   101 1   
    90    44   102 1   
    91    45    46 1   
    92    45   103 1   
    93    46    47 1   
    94    47    48 1   
    95    47    56 1   
    96    47   104 1   
    97    48    49 1   
    98    49    50 1   
    99    49    52 1   
   100    49   105 1   
   101    50    51 1   
   102    50   106 1   
   103    50   107 1   
   104    51   108 1   
   105    52    53 1   
   106    52    54 1   
   107    52   109 1   
   108    53   110 1   
   109    54    55 1   
   110    54    56 1   
   111    54   111 1   
   112    55   112 1   
   113    56    57 1   
   114    56   113 1   
   115    57    58 1   
   116    57   114 1   
   117    58    59 2   
   118    58    60 1   
   119    60   115 1   
   120    60   116 1   
   121    60   117 1   
@<TRIPOS>SUBSTRUCTURE
     1 WZ4         1 TEMP              0 ****  ****    0 ROOT
