@<TRIPOS>MOLECULE
WZ5
  117   121     1     0     0
SMALL
abcg2


@<TRIPOS>ATOM
      1 O21         -4.3270     3.6960    -1.8990 oh         1 WZ5      -0.692000
      2 C21         -4.2070     2.3250    -1.6170 c6         1 WZ5       0.131300
      3 C31         -2.9860     2.1080    -0.7300 c6         1 WZ5       0.145300
      4 O31         -1.7940     2.5820    -1.3120 oh         1 WZ5      -0.669000
      5 C41         -3.1790     2.8040     0.6100 c6         1 WZ5       0.136300
      6 O41         -2.1410     2.4620     1.5040 oh         1 WZ5      -0.741000
      7 C51         -4.4980     2.3800     1.2650 c6         1 WZ5       0.174300
      8 C61         -4.8220     3.2740     2.4430 c3         1 WZ5       0.167600
      9 O61         -5.9580     2.7770     3.1100 oh         1 WZ5      -0.709000
     10 O01         -5.5870     2.4740     0.3590 os         1 WZ5      -0.457000
     11 C11         -5.4320     1.8050    -0.8570 c6         1 WZ5       0.359300
     12 O62         -5.2190     0.4430    -0.7100 os         1 WZ5      -0.492000
     13 C62         -6.2660    -0.3650    -0.2150 c3         1 WZ5       0.178600
     14 C52         -5.6090    -1.5540     0.4570 c6         1 WZ5       0.159300
     15 O02         -5.1410    -1.1080     1.7200 os         1 WZ5      -0.455000
     16 C42         -6.5310    -2.7560     0.6380 c6         1 WZ5       0.151300
     17 O42         -6.9020    -3.2020    -0.6450 oh         1 WZ5      -0.726000
     18 C32         -5.7680    -3.8400     1.3940 c6         1 WZ5       0.141300
     19 O32         -6.6410    -4.9300     1.5790 oh         1 WZ5      -0.652000
     20 C22         -5.2150    -3.3040     2.7120 c6         1 WZ5       0.126300
     21 O22         -6.3010    -3.0060     3.5540 oh         1 WZ5      -0.688000
     22 C12         -4.3940    -2.0380     2.4430 c6         1 WZ5       0.354300
     23 O63         -3.2270    -2.4160     1.7820 os         1 WZ5      -0.483000
     24 C63         -2.2660    -1.3890     1.6420 c3         1 WZ5       0.165600
     25 C53         -1.3770    -1.6960     0.4560 c6         1 WZ5       0.154300
     26 C43         -0.2720    -0.6410     0.3060 c6         1 WZ5       0.118300
     27 O43          0.6510    -0.7340     1.3690 oh         1 WZ5      -0.731000
     28 O53         -2.1840    -1.7100    -0.6980 os         1 WZ5      -0.465000
     29 C13         -1.4840    -2.0880    -1.8500 c6         1 WZ5       0.354300
     30 O13         -2.3650    -2.1590    -2.9050 os         1 WZ5      -0.455000
     31 C73         -3.3170    -3.2030    -2.8300 c3         1 WZ5       0.153900
     32 C23         -0.4160    -1.0520    -2.1990 c6         1 WZ5       0.153300
     33 O23         -0.9910     0.1840    -2.5500 oh         1 WZ5      -0.722000
     34 C33          0.4950    -0.8700    -0.9930 c6         1 WZ5       0.174300
     35 O14          1.3630     0.2160    -1.2220 os         1 WZ5      -0.462000
     36 C14          2.7180    -0.0200    -1.0000 c6         1 WZ5       0.353300
     37 O04          3.2890    -0.8210    -1.9840 os         1 WZ5      -0.462000
     38 C54          3.3040    -0.2880    -3.2960 c6         1 WZ5       0.147300
     39 C64          4.0210    -1.2940    -4.1700 c3         1 WZ5       0.158600
     40 O64          3.2890    -2.4960    -4.1860 oh         1 WZ5      -0.718000
     41 C44          4.0020     1.0780    -3.3270 c6         1 WZ5       0.098300
     42 O44          3.8400     1.6980    -4.5870 oh         1 WZ5      -0.727000
     43 C34          3.3770     2.0050    -2.2890 c6         1 WZ5       0.184300
     44 O34          4.0420     3.2380    -2.2110 oh         1 WZ5      -0.697000
     45 C24          3.4040     1.3460    -0.9210 c6         1 WZ5       0.160300
     46 O15          4.7540     1.1590    -0.5550 os         1 WZ5      -0.406000
     47 C15          5.0200     1.0360     0.7880 c6         1 WZ5       0.379300
     48 O55          5.4070     2.2930     1.2670 os         1 WZ5      -0.447000
     49 C55          5.6710     2.3070     2.6550 c6         1 WZ5       0.153300
     50 C65          5.9680     3.7350     3.0570 c3         1 WZ5       0.171600
     51 O65          4.8180     4.5180     2.8490 oh         1 WZ5      -0.702000
     52 C45          6.8460     1.3690     2.9570 c6         1 WZ5       0.095300
     53 O45          7.0830     1.2570     4.3430 oh         1 WZ5      -0.725000
     54 C35          6.5430    -0.0350     2.4420 c6         1 WZ5       0.163300
     55 O35          7.6470    -0.8890     2.5760 oh         1 WZ5      -0.643000
     56 C25          6.1500     0.0170     0.9710 c6         1 WZ5       0.080700
     57 N25          5.7440    -1.2800     0.4980 ns         1 WZ5      -0.495900
     58 C75          6.0940    -1.7980    -0.6970 c          1 WZ5       0.624100
     59 C85          5.5020    -3.1510    -1.0030 c3         1 WZ5      -0.182100
     60 O75          6.8460    -1.2330    -1.4780 o          1 WZ5      -0.606100
     61 HO21        -5.0370     3.8190    -2.5370 ho         1 WZ5       0.499000
     62 H21         -4.0980     1.7370    -2.5400 h1         1 WZ5       0.049700
     63 H31         -2.9130     1.0310    -0.5420 h1         1 WZ5       0.069700
     64 HO31        -1.3630     1.8250    -1.7400 ho         1 WZ5       0.476000
     65 H41         -3.1990     3.8920     0.4460 h1         1 WZ5       0.066700
     66 HO41        -1.3160     2.7740     1.1190 ho         1 WZ5       0.519000
     67 H51         -4.3940     1.3460     1.6200 h1         1 WZ5       0.074700
     68 H61         -3.9470     3.3010     3.1030 h1         1 WZ5       0.031200
     69 H61A        -4.9790     4.2990     2.0760 h1         1 WZ5       0.031200
     70 HO61        -6.1420     3.3610     3.8510 ho         1 WZ5       0.498000
     71 H11         -6.3580     2.0130    -1.4130 h2         1 WZ5       0.063700
     72 H62         -6.8970     0.1690     0.5040 h1         1 WZ5       0.056700
     73 H62A        -6.9050    -0.6970    -1.0400 h1         1 WZ5       0.056700
     74 H52         -4.7660    -1.8670    -0.1720 h1         1 WZ5       0.079700
     75 H42         -7.4150    -2.4540     1.2200 h1         1 WZ5       0.073700
     76 HO42        -7.3900    -4.0260    -0.5420 ho         1 WZ5       0.520000
     77 H32         -4.9120    -4.1330     0.7710 h1         1 WZ5       0.056700
     78 HO32        -6.1170    -5.7270     1.7060 ho         1 WZ5       0.446000
     79 H22         -4.5580    -4.0590     3.1650 h1         1 WZ5       0.045700
     80 HO22        -5.9650    -2.8290     4.4380 ho         1 WZ5       0.503000
     81 H12         -4.1570    -1.5370     3.3930 h2         1 WZ5       0.067700
     82 H63         -2.7350    -0.4120     1.4890 h1         1 WZ5       0.053700
     83 H63A        -1.6520    -1.3230     2.5480 h1         1 WZ5       0.053700
     84 H53         -0.9030    -2.6810     0.6000 h1         1 WZ5       0.053700
     85 H43         -0.7320     0.3530     0.2770 h1         1 WZ5       0.074700
     86 HO43         0.4590    -0.0560     2.0210 ho         1 WZ5       0.516000
     87 H13         -0.9910    -3.0650    -1.6780 h2         1 WZ5       0.029700
     88 H73         -3.7870    -3.2800    -3.8080 h1         1 WZ5       0.041033
     89 H73A        -2.8410    -4.1600    -2.5980 h1         1 WZ5       0.041033
     90 H73B        -4.0930    -3.0090    -2.0860 h1         1 WZ5       0.041033
     91 H23          0.1840    -1.4460    -3.0310 h1         1 WZ5       0.068700
     92 HO23        -1.6670     0.0260    -3.2190 ho         1 WZ5       0.530000
     93 H33          1.0600    -1.8080    -0.8900 h1         1 WZ5       0.065700
     94 H14          2.8680    -0.5750    -0.0670 h2         1 WZ5       0.078700
     95 H54          2.2780    -0.1570    -3.6710 h1         1 WZ5       0.067700
     96 H64          4.1180    -0.8720    -5.1790 h1         1 WZ5       0.034700
     97 H64A         5.0370    -1.4400    -3.7770 h1         1 WZ5       0.034700
     98 HO64         3.7660    -3.1260    -4.7340 ho         1 WZ5       0.503000
     99 H44          5.0660     0.9420    -3.0920 h1         1 WZ5       0.080700
    100 HO44         4.5910     1.4800    -5.1450 ho         1 WZ5       0.509000
    101 H34          2.3200     2.1490    -2.5590 h1         1 WZ5       0.067700
    102 HO34         4.0380     3.6240    -3.0930 ho         1 WZ5       0.515000
    103 H24          2.8780     1.9750    -0.1920 h1         1 WZ5       0.082700
    104 H15          4.1330     0.6880     1.3500 h2         1 WZ5       0.016700
    105 H55          4.7890     1.9540     3.2150 h1         1 WZ5       0.056700
    106 H65          6.2730     3.7400     4.1100 h1         1 WZ5       0.025700
    107 H65A         6.8240     4.0980     2.4720 h1         1 WZ5       0.025700
    108 HO65         5.0120     5.4120     3.1440 ho         1 WZ5       0.505000
    109 H45          7.7370     1.7430     2.4320 h1         1 WZ5       0.062700
    110 HO45         7.7250     1.9210     4.6080 ho         1 WZ5       0.513000
    111 H35          5.6810    -0.4180     3.0180 h1         1 WZ5       0.035700
    112 HO35         7.9040    -0.8940     3.5040 ho         1 WZ5       0.457000
    113 H25          7.0080     0.3470     0.3790 h1         1 WZ5       0.118700
    114 HN25         5.1280    -1.8190     1.0860 hn         1 WZ5       0.308500
    115 H85          4.7640    -3.0430    -1.7980 hc         1 WZ5       0.061700
    116 H85A         6.2850    -3.8170    -1.3640 hc         1 WZ5       0.061700
    117 H85B         5.0140    -3.6180    -0.1490 hc         1 WZ5       0.061700
@<TRIPOS>BOND
     1     1     2 1   
     2     1    61 1   
     3     2     3 1   
     4     2    11 1   
     5     2    62 1   
     6     3     4 1   
     7     3     5 1   
     8     3    63 1   
     9     4    64 1   
    10     5     6 1   
    11     5     7 1   
    12     5    65 1   
    13     6    66 1   
    14     7     8 1   
    15     7    10 1   
    16     7    67 1   
    17     8     9 1   
    18     8    68 1   
    19     8    69 1   
    20     9    70 1   
    21    10    11 1   
    22    11    12 1   
    23    11    71 1   
    24    12    13 1   
    25    13    14 1   
    26    13    72 1   
    27    13    73 1   
    28    14    15 1   
    29    14    16 1   
    30    14    74 1   
    31    15    22 1   
    32    16    17 1   
    33    16    18 1   
    34    16    75 1   
    35    17    76 1   
    36    18    19 1   
    37    18    20 1   
    38    18    77 1   
    39    19    78 1   
    40    20    21 1   
    41    20    22 1   
    42    20    79 1   
    43    21    80 1   
    44    22    23 1   
    45    22    81 1   
    46    23    24 1   
    47    24    25 1   
    48    24    82 1   
    49    24    83 1   
    50    25    26 1   
    51    25    28 1   
    52    25    84 1   
    53    26    27 1   
    54    26    34 1   
    55    26    85 1   
    56    27    86 1   
    57    28    29 1   
    58    29    30 1   
    59    29    32 1   
    60    29    87 1   
    61    30    31 1   
    62    31    88 1   
    63    31    89 1   
    64    31    90 1   
    65    32    33 1   
    66    32    34 1   
    67    32    91 1   
    68    33    92 1   
    69    34    35 1   
    70    34    93 1   
    71    35    36 1   
    72    36    37 1   
    73    36    45 1   
    74    36    94 1   
    75    37    38 1   
    76    38    39 1   
    77    38    41 1   
    78    38    95 1   
    79    39    40 1   
    80    39    96 1   
    81    39    97 1   
    82    40    98 1   
    83    41    42 1   
    84    41    43 1   
    85    41    99 1   
    86    42   100 1   
    87    43    44 1   
    88    43    45 1   
    89    43   101 1   
    90    44   102 1   
    91    45    46 1   
    92    45   103 1   
    93    46    47 1   
    94    47    48 1   
    95    47    56 1   
    96    47   104 1   
    97    48    49 1   
    98    49    50 1   
    99    49    52 1   
   100    49   105 1   
   101    50    51 1   
   102    50   106 1   
   103    50   107 1   
   104    51   108 1   
   105    52    53 1   
   106    52    54 1   
   107    52   109 1   
   108    53   110 1   
   109    54    55 1   
   110    54    56 1   
   111    54   111 1   
   112    55   112 1   
   113    56    57 1   
   114    56   113 1   
   115    57    58 1   
   116    57   114 1   
   117    58    59 1   
   118    58    60 2   
   119    59   115 1   
   120    59   116 1   
   121    59   117 1   
@<TRIPOS>SUBSTRUCTURE
     1 WZ5         1 TEMP              0 ****  ****    0 ROOT
