@<TRIPOS>MOLECULE
WZ5
  117   121     1     0     0
SMALL
No Charge or Current Charge


@<TRIPOS>ATOM
      1 O21         -4.4840     3.6880    -2.0550 oh         1 WZ5      -0.692000
      2 C21         -4.2160     2.3540    -1.5420 c6         1 WZ5       0.131300
      3 C31         -2.9680     2.3530    -0.5940 c6         1 WZ5       0.145300
      4 O31         -1.7640     2.8110    -1.2520 oh         1 WZ5      -0.669000
      5 C41         -3.2680     3.2020     0.6780 c6         1 WZ5       0.136300
      6 O41         -2.1190     3.1900     1.5490 oh         1 WZ5      -0.741000
      7 C51         -4.5490     2.6470     1.3840 c6         1 WZ5       0.174300
      8 C61         -4.9740     3.5270     2.6070 c3         1 WZ5       0.167600
      9 O61         -6.1800     3.0730     3.2560 oh         1 WZ5      -0.709000
     10 O01         -5.6680     2.5860     0.4500 os         1 WZ5      -0.457000
     11 C11         -5.4290     1.7780    -0.7260 c6         1 WZ5       0.359300
     12 O62         -5.1410     0.4310    -0.3250 os         1 WZ5      -0.492000
     13 C62         -6.1960    -0.3530     0.2630 c3         1 WZ5       0.178600
     14 C52         -5.5360    -1.6480     0.8120 c6         1 WZ5       0.159300
     15 O02         -4.9040    -1.3170     2.0800 os         1 WZ5      -0.455000
     16 C42         -6.5000    -2.8510     1.0080 c6         1 WZ5       0.151300
     17 O42         -7.1540    -3.2330    -0.2190 oh         1 WZ5      -0.726000
     18 C32         -5.6730    -4.0570     1.5610 c6         1 WZ5       0.141300
     19 O32         -6.5390    -5.1770     1.8180 oh         1 WZ5      -0.652000
     20 C22         -4.9150    -3.6650     2.8670 c6         1 WZ5       0.126300
     21 O22         -5.8890    -3.4900     3.9300 oh         1 WZ5      -0.688000
     22 C12         -4.0640    -2.3640     2.6110 c6         1 WZ5       0.354300
     23 O63         -2.9860    -2.5910     1.6820 os         1 WZ5      -0.483000
     24 C63         -2.0790    -1.4780     1.4980 c3         1 WZ5       0.165600
     25 C53         -1.2590    -1.6560     0.1850 c6         1 WZ5       0.154300
     26 C43         -0.1770    -0.5390     0.0080 c6         1 WZ5       0.118300
     27 O43          0.8010    -0.5840     1.0750 oh         1 WZ5      -0.731000
     28 O53         -2.1980    -1.6010    -0.9180 os         1 WZ5      -0.465000
     29 C13         -1.6090    -1.8490    -2.2070 c6         1 WZ5       0.354300
     30 O13         -2.6630    -1.8370    -3.1870 os         1 WZ5      -0.455000
     31 C73         -3.6490    -2.8770    -3.0720 c3         1 WZ5       0.153900
     32 C23         -0.5830    -0.7180    -2.5380 c6         1 WZ5       0.153300
     33 O23         -1.2550     0.5560    -2.7380 oh         1 WZ5      -0.722000
     34 C33          0.4890    -0.6680    -1.4060 c6         1 WZ5       0.174300
     35 O14          1.4550     0.3880    -1.6590 os         1 WZ5      -0.462000
     36 C14          2.8080     0.1040    -1.2480 c6         1 WZ5       0.353300
     37 O04          3.3720    -0.8720    -2.1560 os         1 WZ5      -0.462000
     38 C54          3.4880    -0.4410    -3.5390 c6         1 WZ5       0.147300
     39 C64          4.0320    -1.6470    -4.3740 c3         1 WZ5       0.158600
     40 O64          3.2130    -2.8290    -4.2660 oh         1 WZ5      -0.718000
     41 C44          4.3990     0.8250    -3.6240 c6         1 WZ5       0.098300
     42 O44          4.5160     1.3370    -4.9750 oh         1 WZ5      -0.727000
     43 C34          3.8060     1.9310    -2.7020 c6         1 WZ5       0.184300
     44 O34          4.6260     3.1110    -2.8050 oh         1 WZ5      -0.697000
     45 C24          3.6770     1.4070    -1.2380 c6         1 WZ5       0.160300
     46 O15          4.9910     1.1740    -0.6610 os         1 WZ5      -0.406000
     47 C15          5.0270     0.9320     0.7540 c6         1 WZ5       0.379300
     48 O55          5.1670     2.1980     1.4220 os         1 WZ5      -0.447000
     49 C55          5.1370     2.1110     2.8690 c6         1 WZ5       0.153300
     50 C65          5.1630     3.5650     3.4470 c3         1 WZ5       0.171600
     51 O65          4.0900     4.3920     2.9550 oh         1 WZ5      -0.702000
     52 C45          6.3360     1.2360     3.3570 c6         1 WZ5       0.095300
     53 O45          6.3400     1.0590     4.7920 oh         1 WZ5      -0.725000
     54 C35          6.2630    -0.1550     2.6590 c6         1 WZ5       0.163300
     55 O35          7.3760    -0.9590     3.0790 oh         1 WZ5      -0.643000
     56 C25          6.2190    -0.0090     1.1100 c6         1 WZ5       0.080700
     57 N25          6.0870    -1.3340     0.4490 ns         1 WZ5      -0.495900
     58 C75          6.5420    -1.6530    -0.8090 c          1 WZ5       0.624100
     59 C85          6.1880    -3.0570    -1.2780 c3         1 WZ5      -0.182100
     60 O75          7.1940    -0.8780    -1.4940 o          1 WZ5      -0.606100
     61 HO21        -5.1490     3.5990    -2.7750 ho         1 WZ5       0.499000
     62 H21         -4.0150     1.6670    -2.3770 h1         1 WZ5       0.049700
     63 H31         -2.8110     1.3160    -0.2620 h1         1 WZ5       0.069700
     64 HO31        -1.4740     2.0610    -1.8410 ho         1 WZ5       0.476000
     65 H41         -3.4780     4.2350     0.3600 h1         1 WZ5       0.066700
     66 HO41        -1.3510     3.3300     0.9430 ho         1 WZ5       0.519000
     67 H51         -4.3410     1.6340     1.7590 h1         1 WZ5       0.074700
     68 H61         -4.1460     3.5330     3.3290 h1         1 WZ5       0.031200
     69 H61A        -5.1040     4.5590     2.2550 h1         1 WZ5       0.031200
     70 HO61        -6.3930     3.7300     3.9580 ho         1 WZ5       0.498000
     71 H11         -6.3260     1.7830    -1.3640 h2         1 WZ5       0.063700
     72 H62         -6.6910     0.1800     1.0860 h1         1 WZ5       0.056700
     73 H62A        -6.9490    -0.6070    -0.4930 h1         1 WZ5       0.056700
     74 H52         -4.7640    -1.9420     0.0860 h1         1 WZ5       0.079700
     75 H42         -7.2510    -2.5650     1.7600 h1         1 WZ5       0.073700
     76 HO42        -7.4460    -4.1660    -0.0730 ho         1 WZ5       0.520000
     77 H32         -4.9240    -4.3340     0.8030 h1         1 WZ5       0.056700
     78 HO32        -6.8070    -5.0620     2.7600 ho         1 WZ5       0.446000
     79 H22         -4.2230    -4.4790     3.1260 h1         1 WZ5       0.045700
     80 HO22        -5.3930    -3.2830     4.7570 ho         1 WZ5       0.503000
     81 H12         -3.6390    -2.0320     3.5700 h2         1 WZ5       0.067700
     82 H63         -2.6220    -0.5260     1.4260 h1         1 WZ5       0.053700
     83 H63A        -1.3930    -1.4100     2.3510 h1         1 WZ5       0.053700
     84 H53         -0.7760    -2.6440     0.2010 h1         1 WZ5       0.053700
     85 H43         -0.6980     0.4300     0.0280 h1         1 WZ5       0.074700
     86 HO43         0.5980     0.1550     1.6960 ho         1 WZ5       0.516000
     87 H13         -1.1070    -2.8280    -2.2090 h2         1 WZ5       0.029700
     88 H73         -4.3820    -2.7990    -3.8850 h1         1 WZ5       0.041033
     89 H73A        -3.1800    -3.8680    -3.1290 h1         1 WZ5       0.041033
     90 H73B        -4.1910    -2.8030    -2.1200 h1         1 WZ5       0.041033
     91 H23         -0.0670    -1.0080    -3.4640 h1         1 WZ5       0.068700
     92 HO23        -2.0370     0.3220    -3.2950 ho         1 WZ5       0.530000
     93 H33          1.0160    -1.6340    -1.4380 h1         1 WZ5       0.065700
     94 H14          2.8000    -0.3200    -0.2360 h2         1 WZ5       0.078700
     95 H54          2.4880    -0.1930    -3.9220 h1         1 WZ5       0.067700
     96 H64          4.0970    -1.3370    -5.4260 h1         1 WZ5       0.034700
     97 H64A         5.0540    -1.8640    -4.0340 h1         1 WZ5       0.034700
     98 HO64         3.6640    -3.5410    -4.7770 ho         1 WZ5       0.503000
     99 H44          5.3930     0.5530    -3.2340 h1         1 WZ5       0.080700
    100 HO44         5.1750     0.7810    -5.4540 ho         1 WZ5       0.509000
    101 H34          2.7920     2.1630    -3.0650 h1         1 WZ5       0.067700
    102 HO34         4.9060     3.1160    -3.7510 ho         1 WZ5       0.515000
    103 H24          3.1620     2.1710    -0.6400 h1         1 WZ5       0.082700
    104 H15          4.0930     0.4530     1.0800 h2         1 WZ5       0.016700
    105 H55          4.1920     1.6380     3.1750 h1         1 WZ5       0.056700
    106 H65          5.1080     3.5030     4.5420 h1         1 WZ5       0.025700
    107 H65A         6.1310     4.0180     3.1930 h1         1 WZ5       0.025700
    108 HO65         4.2410     5.2990     3.3090 ho         1 WZ5       0.505000
    109 H45          7.2680     1.7290     3.0360 h1         1 WZ5       0.062700
    110 HO45         6.7690     1.8520     5.1950 ho         1 WZ5       0.513000
    111 H35          5.3280    -0.6410     2.9790 h1         1 WZ5       0.035700
    112 HO35         7.4600    -0.7770     4.0430 ho         1 WZ5       0.457000
    113 H25          7.1480     0.4710     0.7700 h1         1 WZ5       0.118700
    114 HN25         5.6010    -2.0700     0.9470 hn         1 WZ5       0.308500
    115 H85          5.0990    -3.1720    -1.2540 hc         1 WZ5       0.061700
    116 H85A         6.5960    -3.2860    -2.2690 hc         1 WZ5       0.061700
    117 H85B         6.5170    -3.7820    -0.5240 hc         1 WZ5       0.061700
@<TRIPOS>BOND
     1     1     2 1   
     2     1    61 1   
     3     2     3 1   
     4     2    11 1   
     5     2    62 1   
     6     3     4 1   
     7     3     5 1   
     8     3    63 1   
     9     4    64 1   
    10     5     6 1   
    11     5     7 1   
    12     5    65 1   
    13     6    66 1   
    14     7     8 1   
    15     7    10 1   
    16     7    67 1   
    17     8     9 1   
    18     8    68 1   
    19     8    69 1   
    20     9    70 1   
    21    10    11 1   
    22    11    12 1   
    23    11    71 1   
    24    12    13 1   
    25    13    14 1   
    26    13    72 1   
    27    13    73 1   
    28    14    15 1   
    29    14    16 1   
    30    14    74 1   
    31    15    22 1   
    32    16    17 1   
    33    16    18 1   
    34    16    75 1   
    35    17    76 1   
    36    18    19 1   
    37    18    20 1   
    38    18    77 1   
    39    19    78 1   
    40    20    21 1   
    41    20    22 1   
    42    20    79 1   
    43    21    80 1   
    44    22    23 1   
    45    22    81 1   
    46    23    24 1   
    47    24    25 1   
    48    24    82 1   
    49    24    83 1   
    50    25    26 1   
    51    25    28 1   
    52    25    84 1   
    53    26    27 1   
    54    26    34 1   
    55    26    85 1   
    56    27    86 1   
    57    28    29 1   
    58    29    30 1   
    59    29    32 1   
    60    29    87 1   
    61    30    31 1   
    62    31    88 1   
    63    31    89 1   
    64    31    90 1   
    65    32    33 1   
    66    32    34 1   
    67    32    91 1   
    68    33    92 1   
    69    34    35 1   
    70    34    93 1   
    71    35    36 1   
    72    36    37 1   
    73    36    45 1   
    74    36    94 1   
    75    37    38 1   
    76    38    39 1   
    77    38    41 1   
    78    38    95 1   
    79    39    40 1   
    80    39    96 1   
    81    39    97 1   
    82    40    98 1   
    83    41    42 1   
    84    41    43 1   
    85    41    99 1   
    86    42   100 1   
    87    43    44 1   
    88    43    45 1   
    89    43   101 1   
    90    44   102 1   
    91    45    46 1   
    92    45   103 1   
    93    46    47 1   
    94    47    48 1   
    95    47    56 1   
    96    47   104 1   
    97    48    49 1   
    98    49    50 1   
    99    49    52 1   
   100    49   105 1   
   101    50    51 1   
   102    50   106 1   
   103    50   107 1   
   104    51   108 1   
   105    52    53 1   
   106    52    54 1   
   107    52   109 1   
   108    53   110 1   
   109    54    55 1   
   110    54    56 1   
   111    54   111 1   
   112    55   112 1   
   113    56    57 1   
   114    56   113 1   
   115    57    58 1   
   116    57   114 1   
   117    58    59 1   
   118    58    60 2   
   119    59   115 1   
   120    59   116 1   
   121    59   117 1   
@<TRIPOS>SUBSTRUCTURE
     1 WZ5         1 TEMP              0 ****  ****    0 ROOT
