@<TRIPOS>MOLECULE
WZ6
   66    69     1     0     0
SMALL
bcc


@<TRIPOS>ATOM
      1 F2           0.9400    33.3380    29.7680 f          1 WZ6      -0.232300
      2 C8           0.2230    32.2300    29.9860 c3         1 WZ6       0.676600
      3 F           -0.2290    31.8000    28.8150 f          1 WZ6      -0.232300
      4 F1          -0.8310    32.5840    30.7290 f          1 WZ6      -0.232300
      5 C            1.0430    31.1740    30.6540 cc         1 WZ6       0.276800
      6 N1           1.3670    30.0560    30.0840 nd         1 WZ6      -0.516100
      7 C2           2.1350    29.3980    31.0160 ca         1 WZ6       0.035400
      8 C3           2.7510    28.1480    30.9480 ca         1 WZ6      -0.043000
      9 C4           3.4770    27.7090    32.0420 ca         1 WZ6      -0.164600
     10 C7           4.1670    26.3460    32.0100 c          1 WZ6       0.927200
     11 O1           4.8300    26.0360    33.0190 o          1 WZ6      -0.822800
     12 O            4.0050    25.6680    30.9770 o          1 WZ6      -0.822800
     13 C5           3.5760    28.5210    33.1910 ca         1 WZ6      -0.056000
     14 C6           2.9740    29.7600    33.2830 ca         1 WZ6      -0.186000
     15 C1           2.2540    30.1800    32.1710 ca         1 WZ6      -0.056200
     16 N            1.5490    31.3290    31.9100 na         1 WZ6      -0.069400
     17 C10          1.3250    32.3770    32.8380 ca         1 WZ6      -0.036200
     18 C11          0.2120    32.3140    33.6780 ca         1 WZ6       0.163100
     19 O2          -0.6160    31.2740    33.4980 os         1 WZ6      -0.294900
     20 C23         -1.8930    31.3040    34.1140 c3         1 WZ6       0.103400
     21 C24         -2.7010    30.1680    33.5020 c3         1 WZ6       0.129400
     22 O3          -3.9780    30.0830    34.0750 os         1 WZ6      -0.409600
     23 C25         -4.9260    30.9840    33.5350 c3         1 WZ6       0.133400
     24 C26         -6.2440    30.7920    34.2480 c3         1 WZ6      -0.092100
     25 C12          0.0570    33.3040    34.6330 ca         1 WZ6      -0.221000
     26 C13          0.9750    34.3520    34.7710 ca         1 WZ6      -0.015300
     27 C14          0.7350    35.3660    35.8850 c6         1 WZ6      -0.001700
     28 C21          0.4200    34.6620    37.2100 c3         1 WZ6      -0.080600
     29 C22         -0.4570    36.2550    35.5050 c3         1 WZ6      -0.080600
     30 C15          1.9880    36.2180    36.1020 c6         1 WZ6      -0.066400
     31 C16          2.5840    36.7120    34.8000 c6         1 WZ6      -0.066400
     32 C17          3.0840    35.5640    33.9180 c6         1 WZ6       0.009300
     33 C20          4.4120    35.0210    34.4620 c3         1 WZ6      -0.082600
     34 C19          3.3160    36.1220    32.5100 c3         1 WZ6      -0.082600
     35 C18          2.0580    34.4380    33.8890 ca         1 WZ6      -0.099300
     36 C9           2.2180    33.4200    32.9470 ca         1 WZ6      -0.072000
     37 H1           2.6630    27.5350    30.0610 ha         1 WZ6       0.166000
     38 H3           4.1480    28.1530    34.0310 ha         1 WZ6       0.151000
     39 H4           3.0590    30.3690    34.1740 ha         1 WZ6       0.122000
     40 H5          -1.8060    31.1660    35.1970 h1         1 WZ6       0.037200
     41 H6          -2.3760    32.2700    33.9340 h1         1 WZ6       0.037200
     42 H7          -2.7540    30.2990    32.4130 h1         1 WZ6       0.069700
     43 H8          -2.1950    29.2190    33.6940 h1         1 WZ6       0.069700
     44 H9          -5.0460    30.8020    32.4580 h1         1 WZ6       0.021700
     45 H10         -4.5970    32.0250    33.6450 h1         1 WZ6       0.021700
     46 H11         -6.9900    31.4680    33.8320 hc         1 WZ6       0.039700
     47 H12         -6.6150    29.7730    34.1330 hc         1 WZ6       0.039700
     48 H13         -6.1550    31.0080    35.3130 hc         1 WZ6       0.039700
     49 H14         -0.7910    33.2610    35.3030 ha         1 WZ6       0.134000
     50 H15          0.3540    35.4030    38.0100 hc         1 WZ6       0.034033
     51 H16         -0.5300    34.1270    37.1920 hc         1 WZ6       0.034033
     52 H17          1.2040    33.9510    37.4750 hc         1 WZ6       0.034033
     53 H18         -0.6410    36.9910    36.2900 hc         1 WZ6       0.034033
     54 H19         -0.2880    36.7940    34.5720 hc         1 WZ6       0.034033
     55 H20         -1.3660    35.6630    35.3840 hc         1 WZ6       0.034033
     56 H21          2.7310    35.6320    36.6510 hc         1 WZ6       0.040700
     57 H22          1.7290    37.0610    36.7490 hc         1 WZ6       0.040700
     58 H23          3.4150    37.3950    34.9950 hc         1 WZ6       0.038700
     59 H24          1.8390    37.2970    34.2500 hc         1 WZ6       0.038700
     60 H25          4.3110    34.6330    35.4760 hc         1 WZ6       0.036033
     61 H26          4.7910    34.2090    33.8380 hc         1 WZ6       0.036033
     62 H27          5.1700    35.8080    34.4770 hc         1 WZ6       0.036033
     63 H28          3.9770    36.9910    32.5610 hc         1 WZ6       0.036033
     64 H29          3.7870    35.4000    31.8420 hc         1 WZ6       0.036033
     65 H30          2.3790    36.4440    32.0530 hc         1 WZ6       0.036033
     66 H31          3.0670    33.4320    32.2750 ha         1 WZ6       0.152000
@<TRIPOS>BOND
     1     1     2 1   
     2     2     3 1   
     3     2     4 1   
     4     2     5 1   
     5     5     6 2   
     6     5    16 1   
     7     6     7 1   
     8     7     8 ar  
     9     7    15 ar  
    10     8     9 ar  
    11     8    37 1   
    12     9    10 1   
    13     9    13 ar  
    14    10    11 1   
    15    10    12 1   
    16    13    14 ar  
    17    13    38 1   
    18    14    15 ar  
    19    14    39 1   
    20    15    16 1   
    21    16    17 1   
    22    17    18 ar  
    23    17    36 ar  
    24    18    19 1   
    25    18    25 ar  
    26    19    20 1   
    27    20    21 1   
    28    20    40 1   
    29    20    41 1   
    30    21    22 1   
    31    21    42 1   
    32    21    43 1   
    33    22    23 1   
    34    23    24 1   
    35    23    44 1   
    36    23    45 1   
    37    24    46 1   
    38    24    47 1   
    39    24    48 1   
    40    25    26 ar  
    41    25    49 1   
    42    26    27 1   
    43    26    35 ar  
    44    27    28 1   
    45    27    29 1   
    46    27    30 1   
    47    28    50 1   
    48    28    51 1   
    49    28    52 1   
    50    29    53 1   
    51    29    54 1   
    52    29    55 1   
    53    30    31 1   
    54    30    56 1   
    55    30    57 1   
    56    31    32 1   
    57    31    58 1   
    58    31    59 1   
    59    32    33 1   
    60    32    34 1   
    61    32    35 1   
    62    33    60 1   
    63    33    61 1   
    64    33    62 1   
    65    34    63 1   
    66    34    64 1   
    67    34    65 1   
    68    35    36 ar  
    69    36    66 1   
@<TRIPOS>SUBSTRUCTURE
     1 WZ6         1 TEMP              0 ****  ****    0 ROOT
