@<TRIPOS>MOLECULE
WZ6
   66    69     1     0     0
SMALL
No Charge or Current Charge


@<TRIPOS>ATOM
      1 F2           0.9860    33.6550    30.0020 f          1 WZ6      -0.111000
      2 C8           0.3510    32.4650    29.8840 c3         1 WZ6       0.312700
      3 F            0.1530    32.2590    28.5600 f          1 WZ6      -0.111000
      4 F1          -0.8720    32.6080    30.4450 f          1 WZ6      -0.111000
      5 C            1.1430    31.3330    30.5310 cc         1 WZ6       0.276800
      6 N1           1.4600    30.1500    29.9450 nd         1 WZ6      -0.516100
      7 C2           2.1740    29.4570    30.9280 ca         1 WZ6       0.035400
      8 C3           2.7290    28.1710    30.8430 ca         1 WZ6      -0.025000
      9 C4           3.4210    27.6420    31.9660 ca         1 WZ6      -0.164600
     10 C7           4.0300    26.2560    31.9040 c          1 WZ6       0.716600
     11 O1           4.6190    25.8300    32.8880 o          1 WZ6      -0.717500
     12 O            3.9120    25.6120    30.8710 o          1 WZ6      -0.717500
     13 C5           3.5330    28.4300    33.1480 ca         1 WZ6      -0.038000
     14 C6           2.9670    29.7210    33.2100 ca         1 WZ6      -0.168000
     15 C1           2.2990    30.1870    32.0740 ca         1 WZ6      -0.056200
     16 N            1.6680    31.3620    31.8280 na         1 WZ6      -0.069400
     17 C10          1.4060    32.3630    32.7620 ca         1 WZ6      -0.036200
     18 C11          0.2060    32.3730    33.4930 ca         1 WZ6       0.163100
     19 O2          -0.7170    31.3680    33.2630 os         1 WZ6      -0.318100
     20 C23         -1.9890    31.3150    33.9310 c3         1 WZ6       0.126600
     21 C24         -2.7430    30.0720    33.4030 c3         1 WZ6       0.152600
     22 O3          -3.9610    29.8670    34.1590 os         1 WZ6      -0.456000
     23 C25         -4.9970    30.8480    33.9650 c3         1 WZ6       0.156600
     24 C26         -6.2210    30.3930    34.7760 c3         1 WZ6      -0.092100
     25 C12         -0.0200    33.3960    34.4340 ca         1 WZ6      -0.203000
     26 C13          0.9370    34.4130    34.6640 ca         1 WZ6      -0.015300
     27 C14          0.6320    35.5060    35.7270 c6         1 WZ6      -0.001700
     28 C21          0.0930    34.8810    37.0550 c3         1 WZ6      -0.080600
     29 C22         -0.4930    36.4350    35.1700 c3         1 WZ6      -0.080600
     30 C15          1.8970    36.3350    36.0840 c6         1 WZ6      -0.066400
     31 C16          2.6800    36.7540    34.8290 c6         1 WZ6      -0.066400
     32 C17          3.2160    35.5240    34.0450 c6         1 WZ6       0.009300
     33 C20          4.4490    34.9030    34.7740 c3         1 WZ6      -0.082600
     34 C19          3.7160    36.0370    32.6550 c3         1 WZ6      -0.082600
     35 C18          2.1330    34.4220    33.8870 ca         1 WZ6      -0.099300
     36 C9           2.3560    33.3740    32.9660 ca         1 WZ6      -0.054000
     37 H1           2.6220    27.5990    29.9240 ha         1 WZ6       0.148000
     38 H3           4.0580    28.0440    34.0190 ha         1 WZ6       0.133000
     39 H4           3.0490    30.3290    34.1080 ha         1 WZ6       0.104000
     40 H5          -1.8510    31.2240    35.0160 h1         1 WZ6       0.037200
     41 H6          -2.5680    32.2220    33.7180 h1         1 WZ6       0.037200
     42 H7          -2.9590    30.1990    32.3340 h1         1 WZ6       0.069700
     43 H8          -2.0890    29.1970    33.5090 h1         1 WZ6       0.069700
     44 H9          -5.2700    30.9240    32.9040 h1         1 WZ6       0.021700
     45 H10         -4.6810    31.8380    34.3180 h1         1 WZ6       0.021700
     46 H11         -7.0410    31.1100    34.6570 hc         1 WZ6       0.039700
     47 H12         -6.5690    29.4120    34.4330 hc         1 WZ6       0.039700
     48 H13         -5.9740    30.3260    35.8420 hc         1 WZ6       0.039700
     49 H14         -0.9490    33.4110    34.9920 ha         1 WZ6       0.116000
     50 H15         -0.0080    35.6420    37.8390 hc         1 WZ6       0.034033
     51 H16         -0.8940    34.4200    36.9390 hc         1 WZ6       0.034033
     52 H17          0.7750    34.1100    37.4330 hc         1 WZ6       0.034033
     53 H18         -0.7150    37.2570    35.8610 hc         1 WZ6       0.034033
     54 H19         -0.2140    36.8770    34.2070 hc         1 WZ6       0.034033
     55 H20         -1.4270    35.8840    35.0080 hc         1 WZ6       0.034033
     56 H21          2.5520    35.7570    36.7490 hc         1 WZ6       0.040700
     57 H22          1.6140    37.2300    36.6550 hc         1 WZ6       0.040700
     58 H23          3.5120    37.4100    35.1190 hc         1 WZ6       0.038700
     59 H24          2.0360    37.3640    34.1820 hc         1 WZ6       0.038700
     60 H25          4.1720    34.4700    35.7420 hc         1 WZ6       0.036033
     61 H26          4.9020    34.0980    34.1830 hc         1 WZ6       0.036033
     62 H27          5.2290    35.6520    34.9550 hc         1 WZ6       0.036033
     63 H28          4.3920    36.8930    32.7680 hc         1 WZ6       0.036033
     64 H29          4.2690    35.2750    32.0940 hc         1 WZ6       0.036033
     65 H30          2.8760    36.3630    32.0300 hc         1 WZ6       0.036033
     66 H31          3.2780    33.3320    32.3930 ha         1 WZ6       0.134000
@<TRIPOS>BOND
     1     1     2 1   
     2     2     3 1   
     3     2     4 1   
     4     2     5 1   
     5     5     6 2   
     6     5    16 1   
     7     6     7 1   
     8     7     8 ar  
     9     7    15 ar  
    10     8     9 ar  
    11     8    37 1   
    12     9    10 1   
    13     9    13 ar  
    14    10    11 1   
    15    10    12 1   
    16    13    14 ar  
    17    13    38 1   
    18    14    15 ar  
    19    14    39 1   
    20    15    16 1   
    21    16    17 1   
    22    17    18 ar  
    23    17    36 ar  
    24    18    19 1   
    25    18    25 ar  
    26    19    20 1   
    27    20    21 1   
    28    20    40 1   
    29    20    41 1   
    30    21    22 1   
    31    21    42 1   
    32    21    43 1   
    33    22    23 1   
    34    23    24 1   
    35    23    44 1   
    36    23    45 1   
    37    24    46 1   
    38    24    47 1   
    39    24    48 1   
    40    25    26 ar  
    41    25    49 1   
    42    26    27 1   
    43    26    35 ar  
    44    27    28 1   
    45    27    29 1   
    46    27    30 1   
    47    28    50 1   
    48    28    51 1   
    49    28    52 1   
    50    29    53 1   
    51    29    54 1   
    52    29    55 1   
    53    30    31 1   
    54    30    56 1   
    55    30    57 1   
    56    31    32 1   
    57    31    58 1   
    58    31    59 1   
    59    32    33 1   
    60    32    34 1   
    61    32    35 1   
    62    33    60 1   
    63    33    61 1   
    64    33    62 1   
    65    34    63 1   
    66    34    64 1   
    67    34    65 1   
    68    35    36 ar  
    69    36    66 1   
@<TRIPOS>SUBSTRUCTURE
     1 WZ6         1 TEMP              0 ****  ****    0 ROOT
