@<TRIPOS>MOLECULE
WZ7
   28    29     1     0     0
SMALL
bcc


@<TRIPOS>ATOM
      1 C4          16.6070    66.4330    36.9630 ca         1 WZ7      -0.300300
      2 C5          16.8930    65.5110    37.9780 ca         1 WZ7      -0.071600
      3 C6          17.7940    64.3260    37.7750 c          1 WZ7       0.680700
      4 C11         13.2800    67.8950    42.2640 c5         1 WZ7      -0.066700
      5 C7          14.1020    68.1290    40.9840 c5         1 WZ7       0.232500
      6 C8          14.8740    69.4450    41.2330 c5         1 WZ7      -0.066700
      7 C9          14.0500    70.1120    42.2950 c2         1 WZ7      -0.176700
      8 C10         13.1830    69.2710    42.8520 c2         1 WZ7      -0.176700
      9 N1          15.2200    67.6780    38.4700 nb         1 WZ7      -0.741000
     10 N2          17.9020    63.8840    36.5140 nt         1 WZ7      -0.668000
     11 C3          15.7720    67.4850    37.2760 ca         1 WZ7       0.448200
     12 N3          14.9000    66.9790    40.6440 nu         1 WZ7      -0.870900
     13 C1          16.3450    65.7010    39.2250 ca         1 WZ7      -0.270300
     14 C2          15.4900    66.8030    39.4370 ca         1 WZ7       0.682200
     15 O1          18.3810    63.8140    38.7150 o          1 WZ7      -0.599100
     16 H3          17.0350    66.3650    35.9730 ha         1 WZ7       0.139000
     17 H12         12.3110    67.4400    42.0530 hc         1 WZ7       0.057200
     18 H13         13.7950    67.2180    42.9580 hc         1 WZ7       0.057200
     19 H7          13.4040    68.3070    40.1640 h1         1 WZ7       0.079700
     20 H9          15.8900    69.2470    41.5930 hc         1 WZ7       0.057200
     21 H8          14.9730    70.0380    40.3230 hc         1 WZ7       0.057200
     22 H10         14.1810    71.1480    42.5820 ha         1 WZ7       0.138000
     23 H11         12.5070    69.5180    43.6610 ha         1 WZ7       0.138000
     24 H5          18.4720    63.0770    36.3170 hn         1 WZ7       0.315500
     25 H4          17.3250    64.2270    35.7660 hn         1 WZ7       0.315500
     26 H2          15.5370    68.2280    36.5220 h4         1 WZ7       0.016100
     27 H6          15.2480    66.4190    41.4070 hn         1 WZ7       0.432800
     28 H1          16.5510    65.0100    40.0330 ha         1 WZ7       0.159000
@<TRIPOS>BOND
     1     1     2 ar  
     2     1    11 ar  
     3     1    16 1   
     4     2     3 1   
     5     2    13 ar  
     6     3    10 1   
     7     3    15 2   
     8     4     5 1   
     9     4     8 1   
    10     4    17 1   
    11     4    18 1   
    12     5     6 1   
    13     5    12 1   
    14     5    19 1   
    15     6     7 1   
    16     6    20 1   
    17     6    21 1   
    18     7     8 2   
    19     7    22 1   
    20     8    23 1   
    21     9    11 ar  
    22     9    14 ar  
    23    10    24 1   
    24    10    25 1   
    25    11    26 1   
    26    12    14 1   
    27    12    27 1   
    28    13    14 ar  
    29    13    28 1   
@<TRIPOS>SUBSTRUCTURE
     1 WZ7         1 TEMP              0 ****  ****    0 ROOT
