@<TRIPOS>MOLECULE
WZ7
   28    29     1     0     0
SMALL
No Charge or Current Charge


@<TRIPOS>ATOM
      1 C4          16.6390    66.3960    36.9960 ca         1 WZ7      -0.217000
      2 C5          16.7740    65.4280    38.0180 ca         1 WZ7      -0.071600
      3 C6          17.2480    64.0100    37.7560 c          1 WZ7       0.613700
      4 C11         13.7300    67.6850    42.2730 c5         1 WZ7      -0.066700
      5 C7          14.3170    68.1770    40.9030 c5         1 WZ7       0.232500
      6 C8          14.5060    69.7160    41.1430 c5         1 WZ7      -0.066700
      7 C9          13.4630    70.0270    42.1980 c2         1 WZ7      -0.226700
      8 C10         13.0400    68.9220    42.8120 c2         1 WZ7      -0.226700
      9 N1          15.8820    68.0730    38.5710 nb         1 WZ7      -0.741000
     10 N2          17.5540    63.6640    36.4860 nt         1 WZ7      -0.601000
     11 C3          16.1970    67.6910    37.3170 ca         1 WZ7       0.382900
     12 N3          15.6880    67.5940    40.8170 nu         1 WZ7      -0.926100
     13 C1          16.4410    65.8470    39.3240 ca         1 WZ7      -0.187000
     14 C2          15.9990    67.1580    39.5420 ca         1 WZ7       0.616900
     15 O1          17.3630    63.1780    38.6420 o          1 WZ7      -0.599100
     16 H3          16.8710    66.1700    35.9590 ha         1 WZ7       0.121000
     17 H12         13.0270    66.8570    42.1280 hc         1 WZ7       0.057200
     18 H13         14.4920    67.3470    42.9860 hc         1 WZ7       0.057200
     19 H7          13.6370    67.9510    40.0660 h1         1 WZ7       0.079700
     20 H9          15.5040    69.9800    41.5110 hc         1 WZ7       0.057200
     21 H8          14.3360    70.2830    40.2210 hc         1 WZ7       0.057200
     22 H10         13.0980    71.0310    42.4320 ha         1 WZ7       0.188000
     23 H11         12.2900    68.9170    43.6070 ha         1 WZ7       0.188000
     24 H5          17.8710    62.7260    36.2950 hn         1 WZ7       0.315500
     25 H4          17.4650    64.3380    35.7420 hn         1 WZ7       0.315500
     26 H2          16.0920    68.4480    36.5400 h4         1 WZ7       0.016100
     27 H6          15.9750    66.9330    41.5330 hn         1 WZ7       0.488000
     28 H1          16.5210    65.1600    40.1610 ha         1 WZ7       0.141000
@<TRIPOS>BOND
     1     1     2 ar  
     2     1    11 ar  
     3     1    16 1   
     4     2     3 1   
     5     2    13 ar  
     6     3    10 1   
     7     3    15 2   
     8     4     5 1   
     9     4     8 1   
    10     4    17 1   
    11     4    18 1   
    12     5     6 1   
    13     5    12 1   
    14     5    19 1   
    15     6     7 1   
    16     6    20 1   
    17     6    21 1   
    18     7     8 2   
    19     7    22 1   
    20     8    23 1   
    21     9    11 ar  
    22     9    14 ar  
    23    10    24 1   
    24    10    25 1   
    25    11    26 1   
    26    12    14 1   
    27    12    27 1   
    28    13    14 ar  
    29    13    28 1   
@<TRIPOS>SUBSTRUCTURE
     1 WZ7         1 TEMP              0 ****  ****    0 ROOT
