@<TRIPOS>MOLECULE
WZ8
   60    64     1     0     0
SMALL
No Charge or Current Charge


@<TRIPOS>ATOM
      1 C2          -5.5370    -0.3790    28.9750 c3         1 WZ8       0.034500
      2 C3          -6.4490    -0.2750    30.2160 c3         1 WZ8      -0.087100
      3 C4          -5.6630     0.8320    28.0820 cc         1 WZ8      -0.300800
      4 C5          -5.3700     2.1460    28.2910 cd         1 WZ8       0.200500
      5 C9          -5.4890     4.1620    27.0930 cd         1 WZ8       0.604400
      6 C12         -6.1630     0.8040    26.7450 cc         1 WZ8       0.416500
      7 C1          -4.0690    -0.6590    29.3590 c3         1 WZ8      -0.087100
      8 N6          -4.8710     2.6810    29.4470 nd         1 WZ8      -0.219000
      9 C7          -4.7310     3.9980    29.2810 cc         1 WZ8       0.414300
     10 N8          -4.9930     4.7810    28.1590 nc         1 WZ8      -0.374000
     11 N10         -5.6900     2.7850    27.1370 na         1 WZ8      -0.168600
     12 N11         -6.2010     1.9850    26.1230 nd         1 WZ8      -0.609100
     13 N13         -5.8180     4.8610    25.9730 nu         1 WZ8      -0.926100
     14 C14         -5.8820     6.3270    25.8260 c3         1 WZ8       0.292100
     15 C15         -6.8230     6.9790    26.8560 ca         1 WZ8      -0.075300
     16 C16         -8.0670     6.3700    27.1410 ca         1 WZ8      -0.094000
     17 C17         -8.9370     6.9200    28.0950 ca         1 WZ8      -0.100000
     18 C18         -8.5830     8.0940    28.7740 ca         1 WZ8      -0.101000
     19 C19         -7.3600     8.7220    28.4910 ca         1 WZ8      -0.115000
     20 C20         -6.4750     8.1800    27.5340 ca         1 WZ8       0.022800
     21 N21         -5.2750     8.8550    27.2820 na         1 WZ8       0.199000
     22 C22         -4.3570     9.1710    28.2730 cc         1 WZ8      -0.150000
     23 C23         -3.4300     9.8950    27.5780 cd         1 WZ8      -0.229000
     24 C24         -3.8690     9.9890    26.2350 cd         1 WZ8       0.247900
     25 N25         -5.0190     9.3720    26.0300 nc         1 WZ8      -0.521800
     26 O26         -4.2420     4.5870    30.4180 os         1 WZ8      -0.427300
     27 C27         -4.4120     6.0120    30.6390 c6         1 WZ8       0.191300
     28 C28         -3.5980     6.4430    31.8860 c6         1 WZ8      -0.074400
     29 C29         -4.2420     5.9060    33.1910 c6         1 WZ8      -0.073400
     30 C30         -5.7290     6.3280    33.2990 c6         1 WZ8       0.158800
     31 N31         -6.5010     5.9000    32.1090 n7         1 WZ8      -0.853400
     32 C32         -5.9180     6.4080    30.8320 c6         1 WZ8       0.137800
     33 H1          -5.8820    -1.2520    28.4060 hc         1 WZ8       0.037700
     34 H2          -6.4110    -1.2000    30.8020 hc         1 WZ8       0.036867
     35 H3          -6.1400     0.5540    30.8640 hc         1 WZ8       0.036867
     36 H4          -7.4890    -0.1050    29.9140 hc         1 WZ8       0.036867
     37 H5          -6.5080    -0.0680    26.2060 h4         1 WZ8       0.043800
     38 H6          -3.9900    -1.5920    29.9300 hc         1 WZ8       0.036867
     39 H7          -3.4480    -0.7570    28.4600 hc         1 WZ8       0.036867
     40 H8          -3.6590     0.1520    29.9730 hc         1 WZ8       0.036867
     41 H9          -6.2350     4.2660    25.2570 hn         1 WZ8       0.533000
     42 H10         -4.8650     6.7300    25.9270 h1         1 WZ8       0.081200
     43 H11         -6.2310     6.5930    24.8180 h1         1 WZ8       0.081200
     44 H12         -8.3600     5.4590    26.6250 ha         1 WZ8       0.123000
     45 H13         -9.8880     6.4350    28.3080 ha         1 WZ8       0.123000
     46 H14         -9.2570     8.5220    29.5130 ha         1 WZ8       0.122000
     47 H15         -7.1000     9.6400    29.0130 ha         1 WZ8       0.126000
     48 H16         -4.4430     8.8740    29.3100 h4         1 WZ8       0.154000
     49 H17         -2.5240    10.3360    27.9810 ha         1 WZ8       0.148000
     50 H18         -3.3860    10.5000    25.4110 h4         1 WZ8       0.040100
     51 H19         -4.0070     6.5480    29.7680 h1         1 WZ8       0.068700
     52 H20         -2.5620     6.0880    31.8000 hc         1 WZ8       0.051700
     53 H21         -3.5480     7.5400    31.9260 hc         1 WZ8       0.051700
     54 H22         -4.1700     4.8100    33.2200 hc         1 WZ8       0.056700
     55 H23         -3.6880     6.2770    34.0630 hc         1 WZ8       0.056700
     56 H24         -5.7910     7.4230    33.3970 h1         1 WZ8       0.028200
     57 H25         -6.1740     5.8870    34.2030 h1         1 WZ8       0.028200
     58 H26         -7.4670     6.2390    32.1970 hn         1 WZ8       0.411000
     59 H28         -5.9950     7.5050    30.8200 h1         1 WZ8       0.040700
     60 H29         -6.5180     6.0410    29.9860 h1         1 WZ8       0.040700
@<TRIPOS>BOND
     1     1     2 1   
     2     1     3 1   
     3     1     7 1   
     4     1    33 1   
     5     2    34 1   
     6     2    35 1   
     7     2    36 1   
     8     3     4 2   
     9     3     6 1   
    10     4     8 1   
    11     4    11 1   
    12     5    10 2   
    13     5    11 1   
    14     5    13 1   
    15     6    12 2   
    16     6    37 1   
    17     7    38 1   
    18     7    39 1   
    19     7    40 1   
    20     8     9 2   
    21     9    10 1   
    22     9    26 1   
    23    11    12 1   
    24    13    14 1   
    25    13    41 1   
    26    14    15 1   
    27    14    42 1   
    28    14    43 1   
    29    15    16 ar  
    30    15    20 ar  
    31    16    17 ar  
    32    16    44 1   
    33    17    18 ar  
    34    17    45 1   
    35    18    19 ar  
    36    18    46 1   
    37    19    20 ar  
    38    19    47 1   
    39    20    21 1   
    40    21    22 1   
    41    21    25 1   
    42    22    23 2   
    43    22    48 1   
    44    23    24 1   
    45    23    49 1   
    46    24    25 2   
    47    24    50 1   
    48    26    27 1   
    49    27    28 1   
    50    27    32 1   
    51    27    51 1   
    52    28    29 1   
    53    28    52 1   
    54    28    53 1   
    55    29    30 1   
    56    29    54 1   
    57    29    55 1   
    58    30    31 1   
    59    30    56 1   
    60    30    57 1   
    61    31    32 1   
    62    31    58 1   
    63    32    59 1   
    64    32    60 1   
@<TRIPOS>SUBSTRUCTURE
     1 WZ8         1 TEMP              0 ****  ****    0 ROOT
