@<TRIPOS>MOLECULE
WZ8
   60    64     1     0     0
SMALL
abcg2


@<TRIPOS>ATOM
      1 C2          -5.4850    -0.5160    28.8370 c3         1 WZ8       0.034500
      2 C3          -6.4390    -0.5160    30.0400 c3         1 WZ8      -0.087100
      3 C4          -5.6460     0.7200    27.9990 cc         1 WZ8      -0.300800
      4 C5          -5.4030     2.0440    28.3550 cd         1 WZ8       0.200500
      5 C9          -5.5760     4.1540    27.2470 cd         1 WZ8       0.604400
      6 C12         -6.0900     0.8000    26.6650 cc         1 WZ8       0.416500
      7 C1          -4.0310    -0.7130    29.2900 c3         1 WZ8      -0.087100
      8 N6          -4.9820     2.6520    29.4870 nd         1 WZ8      -0.219000
      9 C7          -4.8850     3.9630    29.4130 cc         1 WZ8       0.414300
     10 N8          -5.1490     4.7440    28.3460 nc         1 WZ8      -0.374000
     11 N10         -5.7120     2.7980    27.2270 na         1 WZ8      -0.168600
     12 N11         -6.1380     2.0430    26.1790 nd         1 WZ8      -0.609100
     13 N13         -5.8890     4.8410    26.1520 nu         1 WZ8      -0.926100
     14 C14         -5.8150     6.2930    26.1040 c3         1 WZ8       0.292100
     15 C15         -6.8390     6.9790    26.9850 ca         1 WZ8      -0.075300
     16 C16         -8.0650     6.3760    27.2610 ca         1 WZ8      -0.094000
     17 C17         -8.9850     6.9680    28.1170 ca         1 WZ8      -0.100000
     18 C18         -8.6940     8.1890    28.7150 ca         1 WZ8      -0.101000
     19 C19         -7.4890     8.8170    28.4360 ca         1 WZ8      -0.115000
     20 C20         -6.5730     8.2160    27.5780 ca         1 WZ8       0.022800
     21 N21         -5.3380     8.8800    27.3390 na         1 WZ8       0.199000
     22 C22         -4.4530     9.3180    28.2710 cc         1 WZ8      -0.150000
     23 C23         -3.4220     9.9270    27.5910 cd         1 WZ8      -0.229000
     24 C24         -3.7750     9.8120    26.2320 cd         1 WZ8       0.247900
     25 N25         -4.9340     9.1800    26.0790 nc         1 WZ8      -0.521800
     26 O26         -4.4710     4.5610    30.5330 os         1 WZ8      -0.427300
     27 C27         -4.4920     6.0150    30.6260 c6         1 WZ8       0.191300
     28 C28         -3.5910     6.3830    31.7960 c6         1 WZ8      -0.074400
     29 C29         -4.2150     6.0150    33.1440 c6         1 WZ8      -0.073400
     30 C30         -5.6330     6.5670    33.2470 c6         1 WZ8       0.158800
     31 N31         -6.4360     6.0690    32.1270 n7         1 WZ8      -0.853400
     32 C32         -5.9120     6.5230    30.8420 c6         1 WZ8       0.137800
     33 H1          -5.7530    -1.3630    28.1990 hc         1 WZ8       0.037700
     34 H2          -6.3400    -1.4450    30.6060 hc         1 WZ8       0.036867
     35 H3          -6.2130     0.3160    30.7100 hc         1 WZ8       0.036867
     36 H4          -7.4770    -0.4190    29.7160 hc         1 WZ8       0.036867
     37 H5          -6.3830    -0.0250    26.0320 h4         1 WZ8       0.043800
     38 H6          -3.9300    -1.6410    29.8580 hc         1 WZ8       0.036867
     39 H7          -3.3580    -0.7600    28.4330 hc         1 WZ8       0.036867
     40 H8          -3.7120     0.1130    29.9290 hc         1 WZ8       0.036867
     41 H9          -6.2380     4.3240    25.3600 hn         1 WZ8       0.533000
     42 H10         -4.8140     6.6080    26.3930 h1         1 WZ8       0.081200
     43 H11         -5.9530     6.5790    25.0620 h1         1 WZ8       0.081200
     44 H12         -8.2870     5.4130    26.8200 ha         1 WZ8       0.123000
     45 H13         -9.9250     6.4710    28.3220 ha         1 WZ8       0.123000
     46 H14         -9.4020     8.6540    29.3890 ha         1 WZ8       0.122000
     47 H15         -7.2480     9.7740    28.8790 ha         1 WZ8       0.126000
     48 H16         -4.6200     9.1490    29.3210 h4         1 WZ8       0.154000
     49 H17         -2.5420    10.3810    28.0130 ha         1 WZ8       0.148000
     50 H18         -3.2360    10.1630    25.3650 h4         1 WZ8       0.040100
     51 H19         -4.0990     6.4200    29.6970 h1         1 WZ8       0.068700
     52 H20         -2.6140     5.9130    31.6680 hc         1 WZ8       0.051700
     53 H21         -3.4360     7.4660    31.7500 hc         1 WZ8       0.051700
     54 H22         -4.2460     4.9280    33.2540 hc         1 WZ8       0.056700
     55 H23         -3.6030     6.4090    33.9580 hc         1 WZ8       0.056700
     56 H24         -5.5890     7.6700    33.2540 h1         1 WZ8       0.028200
     57 H25         -6.1010     6.2510    34.1810 h1         1 WZ8       0.028200
     58 H26         -7.3960     6.3770    32.2250 hn         1 WZ8       0.411000
     59 H28         -5.8660     7.6210    30.7740 h1         1 WZ8       0.040700
     60 H29         -6.5620     6.1760    30.0410 h1         1 WZ8       0.040700
@<TRIPOS>BOND
     1     1     2 1   
     2     1     3 1   
     3     1     7 1   
     4     1    33 1   
     5     2    34 1   
     6     2    35 1   
     7     2    36 1   
     8     3     4 2   
     9     3     6 1   
    10     4     8 1   
    11     4    11 1   
    12     5    10 2   
    13     5    11 1   
    14     5    13 1   
    15     6    12 2   
    16     6    37 1   
    17     7    38 1   
    18     7    39 1   
    19     7    40 1   
    20     8     9 2   
    21     9    10 1   
    22     9    26 1   
    23    11    12 1   
    24    13    14 1   
    25    13    41 1   
    26    14    15 1   
    27    14    42 1   
    28    14    43 1   
    29    15    16 ar  
    30    15    20 ar  
    31    16    17 ar  
    32    16    44 1   
    33    17    18 ar  
    34    17    45 1   
    35    18    19 ar  
    36    18    46 1   
    37    19    20 ar  
    38    19    47 1   
    39    20    21 1   
    40    21    22 1   
    41    21    25 1   
    42    22    23 2   
    43    22    48 1   
    44    23    24 1   
    45    23    49 1   
    46    24    25 2   
    47    24    50 1   
    48    26    27 1   
    49    27    28 1   
    50    27    32 1   
    51    27    51 1   
    52    28    29 1   
    53    28    52 1   
    54    28    53 1   
    55    29    30 1   
    56    29    54 1   
    57    29    55 1   
    58    30    31 1   
    59    30    56 1   
    60    30    57 1   
    61    31    32 1   
    62    31    58 1   
    63    32    59 1   
    64    32    60 1   
@<TRIPOS>SUBSTRUCTURE
     1 WZ8         1 TEMP              0 ****  ****    0 ROOT
