@<TRIPOS>MOLECULE
WZA
   53    56     1     0     0
SMALL
bcc


@<TRIPOS>ATOM
      1 C1           2.7050     0.0630     0.4910 ca         1 WZA       0.076100
      2 O1           4.6820    -0.0940    -1.5870 o          1 WZA      -0.617800
      3 O2           6.3670     0.0500     0.2650 o          1 WZA      -0.617800
      4 C2           2.1770    -1.1790     0.1320 ca         1 WZA       0.153100
      5 C3           0.8200    -1.2500    -0.1480 ca         1 WZA      -0.210000
      6 C4          -0.0100    -0.1260    -0.0830 ca         1 WZA      -0.015300
      7 S1           5.1190     0.4630    -0.3300 s6         1 WZA       1.527400
      8 N1           4.9550     2.0840    -0.4440 n8         1 WZA      -0.942700
      9 O3           4.0460     0.1280     0.8340 os         1 WZA      -0.423800
     10 C5           0.5440     1.1100     0.2590 ca         1 WZA      -0.101300
     11 C6           1.9060     1.1810     0.5480 ca         1 WZA      -0.096000
     12 O4           3.0320    -2.2120     0.1010 os         1 WZA      -0.299900
     13 C7           2.5390    -3.4800    -0.2830 c3         1 WZA       0.125700
     14 C8          -1.4820    -0.2540    -0.4330 c6         1 WZA      -0.016400
     15 C10         -1.6270     2.2400    -0.3480 c6         1 WZA      -0.070400
     16 C11         -0.2770     2.3720     0.3370 c6         1 WZA      -0.024100
     17 C12         -2.1110    -1.5840     0.0090 c6         1 WZA      -0.068400
     18 C13         -3.5890    -1.6940    -0.3800 c6         1 WZA      -0.060400
     19 C14         -4.3940    -0.4890     0.0950 c5         1 WZA      -0.039000
     20 C15         -5.7680    -0.3180    -0.5590 c5         1 WZA       0.148100
     21 C16         -4.5330    -0.5110     1.6200 c3         1 WZA      -0.075100
     22 C17         -3.7190     0.7890    -0.4240 c5         1 WZA      -0.065700
     23 C18         -4.7500     1.8910    -0.1630 c5         1 WZA      -0.064400
     24 C19         -6.1090     1.1680    -0.3130 c5         1 WZA      -0.116400
     25 CAW         -2.2970     0.9440     0.0800 c6         1 WZA      -0.045700
     26 OAF         -6.7140    -1.2320    -0.0640 oh         1 WZA      -0.588800
     27 H6           2.3470     2.1300     0.8290 ha         1 WZA       0.147000
     28 H3           0.3940    -2.2000    -0.4370 ha         1 WZA       0.140000
     29 H8          -1.5450    -0.2210    -1.5310 hc         1 WZA       0.057700
     30 H11N         5.4110     2.5980     0.3030 hn         1 WZA       0.428300
     31 H12N         5.2160     2.4410    -1.3560 hn         1 WZA       0.428300
     32 H111        -0.4340     2.6290     1.3900 hc         1 WZA       0.048700
     33 H112         0.2900     3.2010    -0.0910 hc         1 WZA       0.048700
     34 H71C         1.7720    -3.8450     0.4030 h1         1 WZA       0.044367
     35 H72C         2.1300    -3.4670    -1.2970 h1         1 WZA       0.044367
     36 H73C         3.3870    -4.1600    -0.2550 h1         1 WZA       0.044367
     37 H121        -1.5850    -2.4250    -0.4450 hc         1 WZA       0.043200
     38 H122        -1.9880    -1.7000     1.0900 hc         1 WZA       0.043200
     39 HAW         -2.3000     0.9230     1.1780 hc         1 WZA       0.058700
     40 H101        -2.2490     3.1010    -0.0920 hc         1 WZA       0.044700
     41 H102        -1.5060     2.2520    -1.4370 hc         1 WZA       0.044700
     42 H131        -3.6640    -1.7660    -1.4720 hc         1 WZA       0.045700
     43 H132        -4.0010    -2.6240     0.0210 hc         1 WZA       0.045700
     44 H15         -5.6310    -0.4700    -1.6420 h1         1 WZA       0.026700
     45 H161        -3.5660    -0.5530     2.1210 hc         1 WZA       0.037367
     46 H162        -5.0530     0.3660     2.0080 hc         1 WZA       0.037367
     47 H163        -5.0940    -1.3900     1.9380 hc         1 WZA       0.037367
     48 H17         -3.6490     0.6760    -1.5170 hc         1 WZA       0.043700
     49 H191        -6.7090     1.5800    -1.1260 hc         1 WZA       0.047700
     50 H192        -6.7070     1.2580     0.5970 hc         1 WZA       0.047700
     51 HAF         -7.5440    -1.0850    -0.5270 ho         1 WZA       0.403000
     52 H181        -4.6380     2.3110     0.8390 hc         1 WZA       0.044700
     53 H182        -4.6440     2.7190    -0.8650 hc         1 WZA       0.044700
@<TRIPOS>BOND
     1     1     4 ar  
     2     1     9 1   
     3     1    11 ar  
     4     2     7 2   
     5     3     7 2   
     6     4     5 ar  
     7     4    12 1   
     8     5     6 ar  
     9     5    28 1   
    10     6    10 ar  
    11     6    14 1   
    12     7     8 1   
    13     7     9 1   
    14     8    30 1   
    15     8    31 1   
    16    10    11 ar  
    17    10    16 1   
    18    11    27 1   
    19    12    13 1   
    20    13    34 1   
    21    13    35 1   
    22    13    36 1   
    23    14    17 1   
    24    14    25 1   
    25    14    29 1   
    26    15    16 1   
    27    15    25 1   
    28    15    40 1   
    29    15    41 1   
    30    16    32 1   
    31    16    33 1   
    32    17    18 1   
    33    17    37 1   
    34    17    38 1   
    35    18    19 1   
    36    18    42 1   
    37    18    43 1   
    38    19    20 1   
    39    19    21 1   
    40    19    22 1   
    41    20    24 1   
    42    20    26 1   
    43    20    44 1   
    44    21    45 1   
    45    21    46 1   
    46    21    47 1   
    47    22    23 1   
    48    22    25 1   
    49    22    48 1   
    50    23    24 1   
    51    23    52 1   
    52    23    53 1   
    53    24    49 1   
    54    24    50 1   
    55    25    39 1   
    56    26    51 1   
@<TRIPOS>SUBSTRUCTURE
     1 WZA         1 TEMP              0 ****  ****    0 ROOT
