@<TRIPOS>MOLECULE
WZA
   53    56     1     0     0
SMALL
No Charge or Current Charge


@<TRIPOS>ATOM
      1 C1           2.7520     0.3100     0.3630 ca         1 WZA       0.076100
      2 O1           4.5320     0.4070    -1.8750 o          1 WZA      -0.547000
      3 O2           6.2370    -0.5280    -0.2010 o          1 WZA      -0.547000
      4 C2           2.2510    -0.9810     0.0840 ca         1 WZA       0.153100
      5 C3           0.8750    -1.1430    -0.1920 ca         1 WZA      -0.192000
      6 C4          -0.0120    -0.0400    -0.1710 ca         1 WZA      -0.015300
      7 S1           5.1810     0.4140    -0.5630 s6         1 WZA       1.385800
      8 N1           5.8440     1.8810    -0.3570 n8         1 WZA      -1.053100
      9 O3           4.0840     0.5150     0.6510 os         1 WZA      -0.423800
     10 C5           0.5140     1.2510     0.1000 ca         1 WZA      -0.101300
     11 C6           1.8840     1.4100     0.3780 ca         1 WZA      -0.078000
     12 O4           3.1290    -2.0530     0.0950 os         1 WZA      -0.323100
     13 C7           2.7090    -3.4030    -0.1660 c3         1 WZA       0.148900
     14 C8          -1.5190    -0.2240    -0.4990 c6         1 WZA      -0.016400
     15 C10         -1.7730     2.3020    -0.4730 c6         1 WZA      -0.070400
     16 C11         -0.3680     2.5060     0.1270 c6         1 WZA      -0.024100
     17 C12         -2.1340    -1.5930    -0.0410 c6         1 WZA      -0.068400
     18 C13         -3.6440    -1.7280    -0.4050 c6         1 WZA      -0.060400
     19 C14         -4.4850    -0.5350     0.1340 c5         1 WZA      -0.039000
     20 C15         -5.8850    -0.3670    -0.5470 c5         1 WZA       0.171300
     21 C16         -4.5740    -0.6600     1.6990 c3         1 WZA      -0.075100
     22 C17         -3.8570     0.7870    -0.4020 c5         1 WZA      -0.065700
     23 C18         -4.9070     1.8490     0.0350 c5         1 WZA      -0.064400
     24 C19         -6.2730     1.1050    -0.1750 c5         1 WZA      -0.116400
     25 CAW         -2.3760     0.9740     0.0320 c6         1 WZA      -0.045700
     26 OAF         -6.8560    -1.3100    -0.0940 oh         1 WZA      -0.651000
     27 H6           2.2810     2.3970     0.6020 ha         1 WZA       0.129000
     28 H3           0.4950    -2.1280    -0.4300 ha         1 WZA       0.122000
     29 H8          -1.5870    -0.2090    -1.5960 hc         1 WZA       0.057700
     30 H11N         5.4610     2.0990     0.5580 hn         1 WZA       0.483500
     31 H12N         6.7990     1.5970    -0.1600 hn         1 WZA       0.483500
     32 H111        -0.4720     2.8360     1.1700 hc         1 WZA       0.048700
     33 H112         0.1330     3.3290    -0.4020 hc         1 WZA       0.048700
     34 H71C         1.9580    -3.7270     0.5670 h1         1 WZA       0.044367
     35 H72C         2.2810    -3.4920    -1.1730 h1         1 WZA       0.044367
     36 H73C         3.5640    -4.0860    -0.0990 h1         1 WZA       0.044367
     37 H121        -1.6150    -2.4270    -0.5270 hc         1 WZA       0.043200
     38 H122        -1.9820    -1.7290     1.0380 hc         1 WZA       0.043200
     39 HAW         -2.3300     0.9850     1.1300 hc         1 WZA       0.058700
     40 H101        -2.4100     3.1530    -0.1970 hc         1 WZA       0.044700
     41 H102        -1.7140     2.2950    -1.5710 hc         1 WZA       0.044700
     42 H131        -3.7400    -1.7790    -1.4990 hc         1 WZA       0.045700
     43 H132        -4.0410    -2.6790    -0.0240 hc         1 WZA       0.045700
     44 H15         -5.7800    -0.4520    -1.6380 h1         1 WZA       0.026700
     45 H161        -3.5960    -0.5910     2.1850 hc         1 WZA       0.037367
     46 H162        -5.2060     0.1100     2.1550 hc         1 WZA       0.037367
     47 H163        -5.0050    -1.6260     1.9890 hc         1 WZA       0.037367
     48 H17         -3.8140     0.7710    -1.5000 hc         1 WZA       0.043700
     49 H191        -6.8670     1.5670    -0.9710 hc         1 WZA       0.047700
     50 H192        -6.8810     1.1520     0.7360 hc         1 WZA       0.047700
     51 HAF         -7.6980    -1.0840    -0.5450 ho         1 WZA       0.442000
     52 H181        -4.7700     2.1530     1.0790 hc         1 WZA       0.044700
     53 H182        -4.8420     2.7600    -0.5700 hc         1 WZA       0.044700
@<TRIPOS>BOND
     1     1     4 ar  
     2     1     9 1   
     3     1    11 ar  
     4     2     7 2   
     5     3     7 2   
     6     4     5 ar  
     7     4    12 1   
     8     5     6 ar  
     9     5    28 1   
    10     6    10 ar  
    11     6    14 1   
    12     7     8 1   
    13     7     9 1   
    14     8    30 1   
    15     8    31 1   
    16    10    11 ar  
    17    10    16 1   
    18    11    27 1   
    19    12    13 1   
    20    13    34 1   
    21    13    35 1   
    22    13    36 1   
    23    14    17 1   
    24    14    25 1   
    25    14    29 1   
    26    15    16 1   
    27    15    25 1   
    28    15    40 1   
    29    15    41 1   
    30    16    32 1   
    31    16    33 1   
    32    17    18 1   
    33    17    37 1   
    34    17    38 1   
    35    18    19 1   
    36    18    42 1   
    37    18    43 1   
    38    19    20 1   
    39    19    21 1   
    40    19    22 1   
    41    20    24 1   
    42    20    26 1   
    43    20    44 1   
    44    21    45 1   
    45    21    46 1   
    46    21    47 1   
    47    22    23 1   
    48    22    25 1   
    49    22    48 1   
    50    23    24 1   
    51    23    52 1   
    52    23    53 1   
    53    24    49 1   
    54    24    50 1   
    55    25    39 1   
    56    26    51 1   
@<TRIPOS>SUBSTRUCTURE
     1 WZA         1 TEMP              0 ****  ****    0 ROOT
