@<TRIPOS>MOLECULE
WZB
   60    63     1     0     0
SMALL
abcg2


@<TRIPOS>ATOM
      1 OAH          7.1160     0.1290     1.4210 o          1 WZB      -0.555500
      2 SBD          6.6530    -0.8580     0.4690 s6         1 WZB       1.395800
      3 OAG          7.5600    -1.3490    -0.5440 o          1 WZB      -0.555500
      4 NAD          5.9350    -2.0490     1.3380 n8         1 WZB      -1.052100
      5 OAS          5.4260    -0.3030    -0.3680 os         1 WZB      -0.560700
      6 CAX          4.3790     0.4260     0.3090 c5         1 WZB       0.220300
      7 CAM          4.5510     1.9460     0.1770 c5         1 WZB      -0.101400
      8 CAO          3.1100     2.5060     0.1220 c5         1 WZB      -0.067400
      9 CBB          3.0100     0.1230    -0.2950 c5         1 WZB      -0.050000
     10 CBA          2.2300     1.2760     0.3570 c5         1 WZB      -0.067700
     11 CAB          3.0640     0.2260    -1.8230 c3         1 WZB      -0.072100
     12 CAQ          2.3790    -1.1960     0.1350 c6         1 WZB      -0.062400
     13 CAP          0.8830    -1.2340    -0.1960 c6         1 WZB      -0.068400
     14 CAY          0.1230    -0.0250     0.3670 c6         1 WZB      -0.011400
     15 CAZ          0.7720     1.3030    -0.0550 c6         1 WZB      -0.045700
     16 CAN         -0.0030     2.4580     0.5610 c6         1 WZB      -0.070400
     17 CAL         -1.4040     2.5140    -0.0270 c6         1 WZB      -0.031100
     18 CAU         -2.0710     1.1640    -0.1020 ca         1 WZB      -0.058300
     19 CAI         -3.4350     1.1170    -0.3720 ca         1 WZB      -0.129000
     20 CAW         -1.3630    -0.0340     0.0550 ca         1 WZB      -0.059300
     21 CAJ         -2.0660    -1.2320    -0.0530 ca         1 WZB      -0.100000
     22 CAT         -3.4320    -1.3030    -0.3110 ca         1 WZB      -0.061300
     23 CAK         -4.1130    -2.6410    -0.4000 c3         1 WZB      -0.034100
     24 CAA         -4.5120    -3.1880     0.9700 c3         1 WZB      -0.092100
     25 CAV         -4.0960    -0.0920    -0.4640 ca         1 WZB       0.132100
     26 OAR         -5.4470    -0.1190    -0.8010 os         1 WZB      -0.451800
     27 SBC         -6.5680     0.2860     0.2870 s6         1 WZB       1.391800
     28 OAF         -7.7630    -0.3050    -0.2650 o          1 WZB      -0.548000
     29 OAE         -6.1170    -0.0610     1.6140 o          1 WZB      -0.548000
     30 NAC         -6.5510     1.9150     0.1840 n8         1 WZB      -1.053100
     31 HAD1         5.7310    -2.8790     0.7930 hn         1 WZB       0.482000
     32 HAD2         6.4550    -2.2820     2.1770 hn         1 WZB       0.482000
     33 HAX          4.3620     0.1310     1.3630 h1         1 WZB       0.058700
     34 HAM1         5.1200     2.3510     1.0130 hc         1 WZB       0.066200
     35 HAM2         5.1040     2.1860    -0.7320 hc         1 WZB       0.066200
     36 HAO1         2.9430     3.2780     0.8730 hc         1 WZB       0.049200
     37 HAO2         2.9030     2.9590    -0.8500 hc         1 WZB       0.049200
     38 HBA          2.2410     1.0820     1.4410 hc         1 WZB       0.045700
     39 HAB1         3.6980    -0.5590    -2.2360 hc         1 WZB       0.040367
     40 HAB2         2.0800     0.1030    -2.2720 hc         1 WZB       0.040367
     41 HAB3         3.4560     1.1830    -2.1680 hc         1 WZB       0.040367
     42 HAQ1         2.8780    -2.0460    -0.3380 hc         1 WZB       0.044700
     43 HAQ2         2.5100    -1.3190     1.2160 hc         1 WZB       0.044700
     44 HAZ          0.7030     1.4000    -1.1470 hc         1 WZB       0.059700
     45 HAP1         0.7310    -1.2910    -1.2770 hc         1 WZB       0.045700
     46 HAP2         0.4760    -2.1590     0.2140 hc         1 WZB       0.045700
     47 HAY          0.2180    -0.0750     1.4620 hc         1 WZB       0.056700
     48 HAN1        -0.0470     2.3290     1.6480 hc         1 WZB       0.046200
     49 HAN2         0.5020     3.4080     0.3770 hc         1 WZB       0.046200
     50 HAL1        -2.0330     3.2000     0.5450 hc         1 WZB       0.051700
     51 HAL2        -1.3490     2.9310    -1.0380 hc         1 WZB       0.051700
     52 HAI         -3.9830     2.0400    -0.5150 ha         1 WZB       0.131000
     53 HAJ         -1.5380    -2.1700     0.0680 ha         1 WZB       0.116000
     54 HAK1        -4.9930    -2.5850    -1.0420 hc         1 WZB       0.054200
     55 HAK2        -3.4310    -3.3450    -0.8810 hc         1 WZB       0.054200
     56 HAA1        -4.9750    -4.1710     0.8720 hc         1 WZB       0.040700
     57 HAA2        -3.6410    -3.2950     1.6180 hc         1 WZB       0.040700
     58 HAA3        -5.2210    -2.5290     1.4690 hc         1 WZB       0.040700
     59 HAC1        -7.0580     2.2820    -0.6140 hn         1 WZB       0.487000
     60 HAC2        -6.8350     2.3640     1.0480 hn         1 WZB       0.487000
@<TRIPOS>BOND
     1     1     2 2   
     2     2     3 2   
     3     2     4 1   
     4     2     5 1   
     5     4    31 1   
     6     4    32 1   
     7     5     6 1   
     8     6     7 1   
     9     6     9 1   
    10     6    33 1   
    11     7     8 1   
    12     7    34 1   
    13     7    35 1   
    14     8    10 1   
    15     8    36 1   
    16     8    37 1   
    17     9    10 1   
    18     9    11 1   
    19     9    12 1   
    20    10    15 1   
    21    10    38 1   
    22    11    39 1   
    23    11    40 1   
    24    11    41 1   
    25    12    13 1   
    26    12    42 1   
    27    12    43 1   
    28    13    14 1   
    29    13    45 1   
    30    13    46 1   
    31    14    15 1   
    32    14    20 1   
    33    14    47 1   
    34    15    16 1   
    35    15    44 1   
    36    16    17 1   
    37    16    48 1   
    38    16    49 1   
    39    17    18 1   
    40    17    50 1   
    41    17    51 1   
    42    18    19 ar  
    43    18    20 ar  
    44    19    25 ar  
    45    19    52 1   
    46    20    21 ar  
    47    21    22 ar  
    48    21    53 1   
    49    22    23 1   
    50    22    25 ar  
    51    23    24 1   
    52    23    54 1   
    53    23    55 1   
    54    24    56 1   
    55    24    57 1   
    56    24    58 1   
    57    25    26 1   
    58    26    27 1   
    59    27    28 2   
    60    27    29 2   
    61    27    30 1   
    62    30    59 1   
    63    30    60 1   
@<TRIPOS>SUBSTRUCTURE
     1 WZB         1 TEMP              0 ****  ****    0 ROOT
