@<TRIPOS>MOLECULE
WZB
   60    63     1     0     0
SMALL
No Charge or Current Charge


@<TRIPOS>ATOM
      1 OAH          6.9330    -0.1010     1.9980 o          1 WZB      -0.555500
      2 SBD          6.9340    -0.5530     0.6080 s6         1 WZB       1.395800
      3 OAG          7.9090    -0.0960    -0.3760 o          1 WZB      -0.555500
      4 NAD          7.0460    -2.1600     0.6070 n8         1 WZB      -1.052100
      5 OAS          5.4390    -0.5060    -0.0360 os         1 WZB      -0.560700
      6 CAX          4.4010     0.2670     0.6030 c5         1 WZB       0.220300
      7 CAM          4.6400     1.7940     0.3320 c5         1 WZB      -0.101400
      8 CAO          3.2040     2.3930     0.1220 c5         1 WZB      -0.067400
      9 CBB          3.0450    -0.0120    -0.1240 c5         1 WZB      -0.050000
     10 CBA          2.2700     1.2000     0.4760 c5         1 WZB      -0.067700
     11 CAB          3.1730    -0.0260    -1.6930 c3         1 WZB      -0.072100
     12 CAQ          2.3330    -1.3210     0.3220 c6         1 WZB      -0.062400
     13 CAP          0.8230    -1.3260    -0.0690 c6         1 WZB      -0.068400
     14 CAY          0.0560    -0.0640     0.4600 c6         1 WZB      -0.011400
     15 CAZ          0.7840     1.2520     0.0230 c6         1 WZB      -0.045700
     16 CAN          0.0310     2.4710     0.5990 c6         1 WZB      -0.070400
     17 CAL         -1.3810     2.5580    -0.0140 c6         1 WZB      -0.031100
     18 CAU         -2.1180     1.2150    -0.0870 ca         1 WZB      -0.058300
     19 CAI         -3.4930     1.2360    -0.3820 ca         1 WZB      -0.129000
     20 CAW         -1.4550    -0.0250     0.1110 ca         1 WZB      -0.059300
     21 CAJ         -2.2150    -1.2160     0.0370 ca         1 WZB      -0.100000
     22 CAT         -3.5920    -1.1950    -0.2560 ca         1 WZB      -0.061300
     23 CAK         -4.3530    -2.5180    -0.3400 c3         1 WZB      -0.034100
     24 CAA         -4.7350    -3.0630     1.0490 c3         1 WZB      -0.092100
     25 CAV         -4.2320     0.0450    -0.4560 ca         1 WZB       0.132100
     26 OAR         -5.5700     0.0990    -0.7610 os         1 WZB      -0.451800
     27 SBC         -6.6320     0.5160     0.4120 s6         1 WZB       1.391800
     28 OAF         -7.7660    -0.4040     0.3960 o          1 WZB      -0.548000
     29 OAE         -5.9480     0.9020     1.6460 o          1 WZB      -0.548000
     30 NAC         -7.1800     1.8690    -0.2900 n8         1 WZB      -1.053100
     31 HAD1         6.1890    -2.3340     0.0880 hn         1 WZB       0.482000
     32 HAD2         7.7750    -2.2570    -0.0920 hn         1 WZB       0.482000
     33 HAX          4.3410     0.0340     1.6760 h1         1 WZB       0.058700
     34 HAM1         5.1500     2.2660     1.1790 hc         1 WZB       0.066200
     35 HAM2         5.2650     1.9660    -0.5510 hc         1 WZB       0.066200
     36 HAO1         3.0250     3.2590     0.7700 hc         1 WZB       0.049200
     37 HAO2         3.0570     2.7360    -0.9090 hc         1 WZB       0.049200
     38 HBA          2.2130     1.1130     1.5700 hc         1 WZB       0.045700
     39 HAB1         3.6960    -0.9280    -2.0330 hc         1 WZB       0.040367
     40 HAB2         2.2000    -0.0170    -2.1960 hc         1 WZB       0.040367
     41 HAB3         3.7380     0.8260    -2.0840 hc         1 WZB       0.040367
     42 HAQ1         2.8380    -2.1970    -0.1080 hc         1 WZB       0.044700
     43 HAQ2         2.4150    -1.4310     1.4120 hc         1 WZB       0.044700
     44 HAZ          0.7520     1.3290    -1.0720 hc         1 WZB       0.059700
     45 HAP1         0.7060    -1.4070    -1.1580 hc         1 WZB       0.045700
     46 HAP2         0.3890    -2.2410     0.3510 hc         1 WZB       0.045700
     47 HAY          0.1060    -0.1120     1.5570 hc         1 WZB       0.056700
     48 HAN1        -0.0400     2.3870     1.6920 hc         1 WZB       0.046200
     49 HAN2         0.5730     3.4020     0.3880 hc         1 WZB       0.046200
     50 HAL1        -1.9780     3.2830     0.5570 hc         1 WZB       0.051700
     51 HAL2        -1.3030     2.9660    -1.0310 hc         1 WZB       0.051700
     52 HAI         -3.9940     2.1860    -0.5510 ha         1 WZB       0.131000
     53 HAJ         -1.7490    -2.1800     0.2120 ha         1 WZB       0.116000
     54 HAK1        -5.2610    -2.4150    -0.9460 hc         1 WZB       0.054200
     55 HAK2        -3.7390    -3.2670    -0.8550 hc         1 WZB       0.054200
     56 HAA1        -5.2760    -4.0120     0.9530 hc         1 WZB       0.040700
     57 HAA2        -3.8380    -3.2400     1.6560 hc         1 WZB       0.040700
     58 HAA3        -5.3770    -2.3530     1.5830 hc         1 WZB       0.040700
     59 HAC1        -6.8100     1.7150    -1.2240 hn         1 WZB       0.487000
     60 HAC2        -8.1600     1.6170    -0.3730 hn         1 WZB       0.487000
@<TRIPOS>BOND
     1     1     2 2   
     2     2     3 2   
     3     2     4 1   
     4     2     5 1   
     5     4    31 1   
     6     4    32 1   
     7     5     6 1   
     8     6     7 1   
     9     6     9 1   
    10     6    33 1   
    11     7     8 1   
    12     7    34 1   
    13     7    35 1   
    14     8    10 1   
    15     8    36 1   
    16     8    37 1   
    17     9    10 1   
    18     9    11 1   
    19     9    12 1   
    20    10    15 1   
    21    10    38 1   
    22    11    39 1   
    23    11    40 1   
    24    11    41 1   
    25    12    13 1   
    26    12    42 1   
    27    12    43 1   
    28    13    14 1   
    29    13    45 1   
    30    13    46 1   
    31    14    15 1   
    32    14    20 1   
    33    14    47 1   
    34    15    16 1   
    35    15    44 1   
    36    16    17 1   
    37    16    48 1   
    38    16    49 1   
    39    17    18 1   
    40    17    50 1   
    41    17    51 1   
    42    18    19 ar  
    43    18    20 ar  
    44    19    25 ar  
    45    19    52 1   
    46    20    21 ar  
    47    21    22 ar  
    48    21    53 1   
    49    22    23 1   
    50    22    25 ar  
    51    23    24 1   
    52    23    54 1   
    53    23    55 1   
    54    24    56 1   
    55    24    57 1   
    56    24    58 1   
    57    25    26 1   
    58    26    27 1   
    59    27    28 2   
    60    27    29 2   
    61    27    30 1   
    62    30    59 1   
    63    30    60 1   
@<TRIPOS>SUBSTRUCTURE
     1 WZB         1 TEMP              0 ****  ****    0 ROOT
