@<TRIPOS>MOLECULE
WZC
   53    56     1     0     0
SMALL
No Charge or Current Charge


@<TRIPOS>ATOM
      1 OAD          5.5810     0.0570     1.9380 o          1 WZC      -0.556500
      2 SAZ          5.5350    -0.5090     0.5910 s6         1 WZC       1.396800
      3 OAE          6.4980    -0.1640    -0.4490 o          1 WZC      -0.556500
      4 NAC          5.6040    -2.1120     0.7220 n8         1 WZC      -1.052100
      5 OAP          4.0270    -0.4720    -0.0210 os         1 WZC      -0.560700
      6 CAV          3.0280     0.3850     0.5700 c5         1 WZC       0.220300
      7 CAK          3.3050     1.8750     0.1630 c5         1 WZC      -0.100400
      8 CAM          1.8830     2.5020    -0.0540 c5         1 WZC      -0.068400
      9 CAX          0.9220     1.3720     0.4120 c5         1 WZC      -0.066700
     10 CAW         -0.5610     1.4450    -0.0310 c6         1 WZC      -0.046700
     11 CAJ         -1.3070     2.6950     0.4780 c6         1 WZC      -0.070400
     12 CAI         -2.7390     2.7330    -0.1060 c6         1 WZC      -0.027100
     13 CAR         -3.5070     1.4000    -0.0460 ca         1 WZC      -0.065300
     14 CAG         -4.8930     1.4310    -0.2880 ca         1 WZC      -0.127000
     15 CAQ         -5.6500     0.2530    -0.2540 ca         1 WZC       0.122100
     16 OAF         -6.9940     0.3000    -0.4890 oh         1 WZC      -0.535100
     17 CAS         -5.0340    -0.9790     0.0270 ca         1 WZC       0.044100
     18 OAO         -5.8310    -2.1130     0.0580 os         1 WZC      -0.367100
     19 CAA         -5.2990    -3.4230     0.3320 c3         1 WZC       0.156900
     20 CAH         -3.6430    -1.0220     0.2680 ca         1 WZC      -0.151000
     21 CAT         -2.8650     0.1600     0.2180 ca         1 WZC      -0.069300
     22 CAU         -1.3230     0.1390     0.5060 c6         1 WZC      -0.006400
     23 CAL         -0.5920    -1.2180     0.1140 c6         1 WZC      -0.067400
     24 CAN          0.9240    -1.1760     0.4760 c6         1 WZC      -0.061400
     25 CAY          1.6450     0.0840    -0.0970 c5         1 WZC      -0.050000
     26 CAB          1.7300    -0.0670    -1.6610 c3         1 WZC      -0.072100
     27 HAC1         6.3130    -2.2880     0.0170 hn         1 WZC       0.482000
     28 HAC2         4.7300    -2.3040     0.2390 hn         1 WZC       0.482000
     29 HAV          2.9880     0.2480     1.6610 h1         1 WZC       0.058700
     30 HAK1         3.8580     2.3990     0.9500 hc         1 WZC       0.065700
     31 HAK2         3.9050     1.9490    -0.7520 hc         1 WZC       0.065700
     32 HAM1         1.7470     3.4200     0.5290 hc         1 WZC       0.049200
     33 HAM2         1.7160     2.7690    -1.1040 hc         1 WZC       0.049200
     34 HAX          0.8780     1.3750     1.5100 hc         1 WZC       0.045700
     35 HAW         -0.6040     1.4530    -1.1280 hc         1 WZC       0.059700
     36 HAJ1        -1.3520     2.6850     1.5760 hc         1 WZC       0.044200
     37 HAJ2        -0.7720     3.6100     0.1920 hc         1 WZC       0.044200
     38 HAU         -1.2530     0.1870     1.6020 hc         1 WZC       0.052700
     39 HAI1        -3.3120     3.5150     0.4100 hc         1 WZC       0.050700
     40 HAI2        -2.6830     3.0500    -1.1570 hc         1 WZC       0.050700
     41 HAG         -5.3870     2.3750    -0.5030 ha         1 WZC       0.128000
     42 HAF         -7.3190    -0.6260    -0.4120 ho         1 WZC       0.480000
     43 HAH         -3.1710    -1.9670     0.5000 ha         1 WZC       0.114000
     44 HAA1        -6.1000    -4.1720     0.3040 h1         1 WZC       0.040367
     45 HAA2        -4.5460    -3.7020    -0.4160 h1         1 WZC       0.040367
     46 HAA3        -4.8370    -3.4570     1.3270 h1         1 WZC       0.040367
     47 HAL1        -1.0340    -2.0670     0.6500 hc         1 WZC       0.042700
     48 HAL2        -0.7290    -1.4210    -0.9560 hc         1 WZC       0.042700
     49 HAN1         1.0230    -1.1840     1.5710 hc         1 WZC       0.042700
     50 HAN2         1.4200    -2.0920     0.1240 hc         1 WZC       0.042700
     51 HAB1         2.2340    -1.0010    -1.9360 hc         1 WZC       0.040033
     52 HAB2         0.7430    -0.0900    -2.1340 hc         1 WZC       0.040033
     53 HAB3         2.2920     0.7420    -2.1390 hc         1 WZC       0.040033
@<TRIPOS>BOND
     1     1     2 2   
     2     2     3 2   
     3     2     4 1   
     4     2     5 1   
     5     4    27 1   
     6     4    28 1   
     7     5     6 1   
     8     6     7 1   
     9     6    25 1   
    10     6    29 1   
    11     7     8 1   
    12     7    30 1   
    13     7    31 1   
    14     8     9 1   
    15     8    32 1   
    16     8    33 1   
    17     9    10 1   
    18     9    25 1   
    19     9    34 1   
    20    10    11 1   
    21    10    22 1   
    22    10    35 1   
    23    11    12 1   
    24    11    36 1   
    25    11    37 1   
    26    12    13 1   
    27    12    39 1   
    28    12    40 1   
    29    13    14 ar  
    30    13    21 ar  
    31    14    15 ar  
    32    14    41 1   
    33    15    16 1   
    34    15    17 ar  
    35    16    42 1   
    36    17    18 1   
    37    17    20 ar  
    38    18    19 1   
    39    19    44 1   
    40    19    45 1   
    41    19    46 1   
    42    20    21 ar  
    43    20    43 1   
    44    21    22 1   
    45    22    23 1   
    46    22    38 1   
    47    23    24 1   
    48    23    47 1   
    49    23    48 1   
    50    24    25 1   
    51    24    49 1   
    52    24    50 1   
    53    25    26 1   
    54    26    51 1   
    55    26    52 1   
    56    26    53 1   
@<TRIPOS>SUBSTRUCTURE
     1 WZC         1 TEMP              0 ****  ****    0 ROOT
