@<TRIPOS>MOLECULE
WZC
   53    56     1     0     0
SMALL
bcc


@<TRIPOS>ATOM
      1 OAD          5.8000     0.1380     1.2540 o          1 WZC      -0.627300
      2 SAZ          5.2780    -0.8600     0.3450 s6         1 WZC       1.538400
      3 OAE          6.1350    -1.4050    -0.6830 o          1 WZC      -0.627300
      4 NAC          4.5560    -2.0040     1.2720 n8         1 WZC      -0.941700
      5 OAP          4.0390    -0.2920    -0.4650 os         1 WZC      -0.537500
      6 CAV          3.0440     0.4970     0.2250 c5         1 WZC       0.197100
      7 CAK          3.2380     2.0010    -0.0130 c5         1 WZC      -0.100400
      8 CAM          1.8090     2.5920     0.0040 c5         1 WZC      -0.068400
      9 CAX          0.9160     1.3960     0.3460 c5         1 WZC      -0.066700
     10 CAW         -0.5590     1.4350    -0.0020 c6         1 WZC      -0.046700
     11 CAJ         -1.2820     2.6440     0.5700 c6         1 WZC      -0.070400
     12 CAI         -2.7060     2.6960     0.0400 c6         1 WZC      -0.027100
     13 CAR         -3.4010     1.3590     0.0690 ca         1 WZC      -0.065300
     14 CAG         -4.7820     1.3310    -0.1430 ca         1 WZC      -0.145000
     15 CAQ         -5.4960     0.1500    -0.1480 ca         1 WZC       0.122100
     16 OAF         -6.8300     0.1770    -0.3600 oh         1 WZC      -0.496100
     17 CAS         -4.8110    -1.0540     0.0720 ca         1 WZC       0.044100
     18 OAO         -5.5880    -2.1630     0.0570 os         1 WZC      -0.343900
     19 CAA         -4.9740    -3.4180     0.2640 c3         1 WZC       0.133700
     20 CAH         -3.4450    -1.0320     0.2820 ca         1 WZC      -0.169000
     21 CAT         -2.7150     0.1640     0.2750 ca         1 WZC      -0.069300
     22 CAU         -1.2170     0.1520     0.5300 c6         1 WZC      -0.006400
     23 CAL         -0.5090    -1.1080     0.0130 c6         1 WZC      -0.067400
     24 CAN          1.0030    -1.0870     0.2600 c6         1 WZC      -0.061400
     25 CAY          1.6360     0.1910    -0.2790 c5         1 WZC      -0.050000
     26 CAB          1.6040     0.2040    -1.8110 c3         1 WZC      -0.072100
     27 HAC1         5.1010    -2.2350     2.0960 hn         1 WZC       0.426800
     28 HAC2         4.3000    -2.8390     0.7570 hn         1 WZC       0.426800
     29 HAV          3.0860     0.2700     1.2950 h1         1 WZC       0.058700
     30 HAK1         3.8810     2.4410     0.7480 hc         1 WZC       0.065700
     31 HAK2         3.7220     2.1680    -0.9770 hc         1 WZC       0.065700
     32 HAM1         1.7090     3.3960     0.7340 hc         1 WZC       0.049200
     33 HAM2         1.5490     3.0160    -0.9690 hc         1 WZC       0.049200
     34 HAX          0.9750     1.2580     1.4370 hc         1 WZC       0.045700
     35 HAW         -0.6680     1.4660    -1.0940 hc         1 WZC       0.059700
     36 HAJ1        -1.2800     2.5820     1.6640 hc         1 WZC       0.044200
     37 HAJ2        -0.7640     3.5680     0.3060 hc         1 WZC       0.044200
     38 HAU         -1.0730     0.1690     1.6220 hc         1 WZC       0.052700
     39 HAI1        -3.2940     3.4280     0.6000 hc         1 WZC       0.050700
     40 HAI2        -2.6860     3.0600    -0.9930 hc         1 WZC       0.050700
     41 HAG         -5.3160     2.2610    -0.3100 ha         1 WZC       0.146000
     42 HAF         -7.1800    -0.7220    -0.3600 ho         1 WZC       0.441000
     43 HAH         -2.9270    -1.9640     0.4650 ha         1 WZC       0.132000
     44 HAA1        -5.7630    -4.1630     0.2080 h1         1 WZC       0.040367
     45 HAA2        -4.2270    -3.6360    -0.5030 h1         1 WZC       0.040367
     46 HAA3        -4.4980    -3.4790     1.2460 h1         1 WZC       0.040367
     47 HAL1        -0.9120    -1.9950     0.5070 hc         1 WZC       0.042700
     48 HAL2        -0.7230    -1.2360    -1.0520 hc         1 WZC       0.042700
     49 HAN1         1.1930    -1.1540     1.3370 hc         1 WZC       0.042700
     50 HAN2         1.4600    -1.9730    -0.1910 hc         1 WZC       0.042700
     51 HAB1         2.1960    -0.6200    -2.2130 hc         1 WZC       0.040033
     52 HAB2         0.5930     0.0810    -2.1960 hc         1 WZC       0.040033
     53 HAB3         1.9940     1.1290    -2.2360 hc         1 WZC       0.040033
@<TRIPOS>BOND
     1     1     2 2   
     2     2     3 2   
     3     2     4 1   
     4     2     5 1   
     5     4    27 1   
     6     4    28 1   
     7     5     6 1   
     8     6     7 1   
     9     6    25 1   
    10     6    29 1   
    11     7     8 1   
    12     7    30 1   
    13     7    31 1   
    14     8     9 1   
    15     8    32 1   
    16     8    33 1   
    17     9    10 1   
    18     9    25 1   
    19     9    34 1   
    20    10    11 1   
    21    10    22 1   
    22    10    35 1   
    23    11    12 1   
    24    11    36 1   
    25    11    37 1   
    26    12    13 1   
    27    12    39 1   
    28    12    40 1   
    29    13    14 ar  
    30    13    21 ar  
    31    14    15 ar  
    32    14    41 1   
    33    15    16 1   
    34    15    17 ar  
    35    16    42 1   
    36    17    18 1   
    37    17    20 ar  
    38    18    19 1   
    39    19    44 1   
    40    19    45 1   
    41    19    46 1   
    42    20    21 ar  
    43    20    43 1   
    44    21    22 1   
    45    22    23 1   
    46    22    38 1   
    47    23    24 1   
    48    23    47 1   
    49    23    48 1   
    50    24    25 1   
    51    24    49 1   
    52    24    50 1   
    53    25    26 1   
    54    26    51 1   
    55    26    52 1   
    56    26    53 1   
@<TRIPOS>SUBSTRUCTURE
     1 WZC         1 TEMP              0 ****  ****    0 ROOT
