@<TRIPOS>MOLECULE
WZF
   35    37     1     0     0
SMALL
abcg2


@<TRIPOS>ATOM
      1 C4          -7.7660    -6.9850     8.1560 ca         1 WZF      -0.017000
      2 C14         -5.4290   -10.7110     5.4060 ca         1 WZF      -0.100000
      3 C5          -7.7570    -8.3530     8.1710 ca         1 WZF      -0.214000
      4 C6          -6.5460    -9.0390     8.4410 ca         1 WZF       0.180100
      5 C11         -4.8520   -13.4050     5.1190 ca         1 WZF      -0.108500
      6 C7          -7.5130   -11.2020     8.0420 c3         1 WZF       0.168600
      7 C8          -7.6280   -11.2270     6.5220 c3         1 WZF      -0.065100
      8 C9          -6.3500   -11.6540     5.8560 ca         1 WZF      -0.078300
      9 C10         -6.0450   -13.0050     5.7050 ca         1 WZF      -0.100000
     10 C12         -3.9400   -12.4540     4.6760 ca         1 WZF      -0.108000
     11 C13         -4.2330   -11.1050     4.8220 ca         1 WZF      -0.108500
     12 N2          -5.4220    -4.1910     8.6310 nb         1 WZF      -0.239000
     13 C3          -6.5920    -6.2550     8.4030 ca         1 WZF      -0.239000
     14 N3          -4.2390    -6.2520     8.9080 nb         1 WZF      -0.268000
     15 C1          -4.3060    -4.9390     8.8790 ca         1 WZF       0.392900
     16 C2          -6.5190    -4.8480     8.4010 ca         1 WZF       0.183900
     17 O1          -6.4540   -10.3760     8.5010 os         1 WZF      -0.338100
     18 C15         -5.3810    -8.3390     8.6840 ca         1 WZF      -0.171000
     19 C16         -5.3800    -6.9350     8.6720 ca         1 WZF       0.121000
     20 H4          -8.6890    -6.4540     7.9520 ha         1 WZF       0.112000
     21 H5          -8.6770    -8.8880     7.9810 ha         1 WZF       0.119000
     22 H11         -4.6350   -14.4590     5.0040 ha         1 WZF       0.112500
     23 H7          -8.4660   -10.9170     8.4970 h1         1 WZF       0.056200
     24 H6          -7.2680   -12.1980     8.4110 h1         1 WZF       0.056200
     25 H9          -7.9390   -10.2500     6.1460 hc         1 WZF       0.055700
     26 H8          -8.4350   -11.9230     6.2780 hc         1 WZF       0.055700
     27 H10         -6.7520   -13.7540     6.0440 ha         1 WZF       0.110000
     28 H12         -3.0100   -12.7640     4.2180 ha         1 WZF       0.112000
     29 H13         -3.5310   -10.3560     4.4760 ha         1 WZF       0.112500
     30 H3          -7.4150    -4.2660     8.1990 h4         1 WZF       0.018100
     31 H15         -4.4590    -8.8700     8.8860 ha         1 WZF       0.147000
     32 N1          -3.1920    -4.2310     9.1330 nv         1 WZF      -1.070900
     33 H14         -5.6540    -9.6550     5.5060 ha         1 WZF       0.110000
     34 H2          -2.3070    -4.7000     9.2090 hn         1 WZF       0.501000
     35 H1          -3.1900    -3.2370     8.9910 hn         1 WZF       0.501000
@<TRIPOS>BOND
     1     1     3 ar  
     2     1    13 ar  
     3     1    20 1   
     4     2     8 ar  
     5     2    11 ar  
     6     2    33 1   
     7     3     4 ar  
     8     3    21 1   
     9     4    17 1   
    10     4    18 ar  
    11     5     9 ar  
    12     5    10 ar  
    13     5    22 1   
    14     6     7 1   
    15     6    17 1   
    16     6    23 1   
    17     6    24 1   
    18     7     8 1   
    19     7    25 1   
    20     7    26 1   
    21     8     9 ar  
    22     9    27 1   
    23    10    11 ar  
    24    10    28 1   
    25    11    29 1   
    26    12    15 ar  
    27    12    16 ar  
    28    13    16 ar  
    29    13    19 ar  
    30    14    15 ar  
    31    14    19 ar  
    32    15    32 1   
    33    16    30 1   
    34    18    19 ar  
    35    18    31 1   
    36    32    34 1   
    37    32    35 1   
@<TRIPOS>SUBSTRUCTURE
     1 WZF         1 TEMP              0 ****  ****    0 ROOT
