@<TRIPOS>MOLECULE
WZF
   35    37     1     0     0
SMALL
No Charge or Current Charge


@<TRIPOS>ATOM
      1 C4          -7.7830    -6.9650     8.1900 ca         1 WZF      -0.017000
      2 C14         -5.4670   -10.5850     5.4430 ca         1 WZF      -0.100000
      3 C5          -7.8200    -8.3670     8.2480 ca         1 WZF      -0.214000
      4 C6          -6.6390    -9.0940     8.5100 ca         1 WZF       0.180100
      5 C11         -4.7150   -13.2790     5.1770 ca         1 WZF      -0.108500
      6 C7          -7.6650   -11.3140     8.0650 c3         1 WZF       0.168600
      7 C8          -7.6790   -11.2420     6.5180 c3         1 WZF      -0.065100
      8 C9          -6.3370   -11.6000     5.8890 ca         1 WZF      -0.078300
      9 C10         -5.9540   -12.9490     5.7530 ca         1 WZF      -0.100000
     10 C12         -3.8510   -12.2630     4.7340 ca         1 WZF      -0.108000
     11 C13         -4.2280   -10.9160     4.8670 ca         1 WZF      -0.108500
     12 N2          -5.3330    -4.2350     8.5490 nb         1 WZF      -0.239000
     13 C3          -6.5680    -6.2910     8.4000 ca         1 WZF      -0.239000
     14 N3          -4.2210    -6.3450     8.8740 nb         1 WZF      -0.268000
     15 C1          -4.2660    -5.0060     8.8020 ca         1 WZF       0.392900
     16 C2          -6.4950    -4.8850     8.3480 ca         1 WZF       0.183900
     17 O1          -6.6100   -10.4730     8.5790 os         1 WZF      -0.338100
     18 C15         -5.4340    -8.4080     8.7270 ca         1 WZF      -0.171000
     19 C16         -5.3810    -7.0060     8.6720 ca         1 WZF       0.121000
     20 H4          -8.6950    -6.4060     7.9860 ha         1 WZF       0.112000
     21 H5          -8.7700    -8.8680     8.0930 ha         1 WZF       0.119000
     22 H11         -4.4250   -14.3230     5.0750 ha         1 WZF       0.112500
     23 H7          -8.6420   -11.0310     8.4750 h1         1 WZF       0.056200
     24 H6          -7.4790   -12.3550     8.3610 h1         1 WZF       0.056200
     25 H9          -7.9970   -10.2420     6.1990 hc         1 WZF       0.055700
     26 H8          -8.4530   -11.9260     6.1500 hc         1 WZF       0.055700
     27 H10         -6.6160   -13.7410     6.0950 ha         1 WZF       0.110000
     28 H12         -2.8920   -12.5190     4.2890 ha         1 WZF       0.112000
     29 H13         -3.5600   -10.1280     4.5260 ha         1 WZF       0.112500
     30 H3          -7.3720    -4.2730     8.1420 h4         1 WZF       0.018100
     31 H15         -4.5300    -8.9750     8.9340 ha         1 WZF       0.147000
     32 N1          -3.0920    -4.3600     9.0040 nv         1 WZF      -1.070900
     33 H14         -5.7480    -9.5400     5.5460 ha         1 WZF       0.110000
     34 H2          -2.2330    -4.9040     8.9710 hn         1 WZF       0.501000
     35 H1          -3.0220    -3.3810     8.7350 hn         1 WZF       0.501000
@<TRIPOS>BOND
     1     1     3 ar  
     2     1    13 ar  
     3     1    20 1   
     4     2     8 ar  
     5     2    11 ar  
     6     2    33 1   
     7     3     4 ar  
     8     3    21 1   
     9     4    17 1   
    10     4    18 ar  
    11     5     9 ar  
    12     5    10 ar  
    13     5    22 1   
    14     6     7 1   
    15     6    17 1   
    16     6    23 1   
    17     6    24 1   
    18     7     8 1   
    19     7    25 1   
    20     7    26 1   
    21     8     9 ar  
    22     9    27 1   
    23    10    11 ar  
    24    10    28 1   
    25    11    29 1   
    26    12    15 ar  
    27    12    16 ar  
    28    13    16 ar  
    29    13    19 ar  
    30    14    15 ar  
    31    14    19 ar  
    32    15    32 1   
    33    16    30 1   
    34    18    19 ar  
    35    18    31 1   
    36    32    34 1   
    37    32    35 1   
@<TRIPOS>SUBSTRUCTURE
     1 WZF         1 TEMP              0 ****  ****    0 ROOT
