@<TRIPOS>MOLECULE
WZG
   83    85     1     0     0
SMALL
abcg2


@<TRIPOS>ATOM
      1 N1A         25.4420    19.5260    11.1580 nb         1 WZG      -0.343000
      2 C2A         25.4040    19.0360    12.4020 ca         1 WZG       0.103900
      3 N3A         25.1750    19.6930    13.5370 nb         1 WZG      -0.194000
      4 C4A         24.9800    21.0010    13.3290 ca         1 WZG       0.090500
      5 C5A         25.0060    21.6480    12.0930 ca         1 WZG      -0.067600
      6 C6A         25.2280    20.8400    10.9640 ca         1 WZG       0.415900
      7 N6A         25.2490    21.3270     9.7090 nv         1 WZG      -1.082900
      8 N7A         24.7650    23.0010    12.2520 nc         1 WZG      -0.575100
      9 C8A         24.6000    23.1610    13.5440 cd         1 WZG       0.497700
     10 N9A         24.7130    21.9850    14.2510 na         1 WZG      -0.275300
     11 C1B         24.5220    21.7810    15.6860 c5         1 WZG       0.294300
     12 C2B         25.7110    22.2140    16.5510 c5         1 WZG       0.119300
     13 O2B         25.8370    21.3070    17.6220 oh         1 WZG      -0.841000
     14 C3B         25.2870    23.6250    17.0230 c5         1 WZG       0.208300
     15 O3B         25.7640    24.0320    18.2820 os         1 WZG      -0.590400
     16 P3B         27.4110    24.0640    18.6360 p5         1 WZG       1.306900
     17 O7A         27.4330    24.7860    19.9680 o          1 WZG      -0.914167
     18 O8A         28.0840    24.7820    17.4790 o          1 WZG      -0.914167
     19 O9A         27.7960    22.5760    18.7380 o          1 WZG      -0.914167
     20 C4B         23.7630    23.5090    17.0900 c5         1 WZG       0.136300
     21 O4B         23.3960    22.5250    16.1050 os         1 WZG      -0.466000
     22 C5B         22.9930    24.7870    16.8450 c3         1 WZG       0.242600
     23 O5B         23.4250    25.4100    15.6320 os         1 WZG      -0.611400
     24 P1A         22.3630    26.0580    14.5910 p5         1 WZG       1.493800
     25 O1A         21.4060    26.9530    15.3060 o          1 WZG      -0.862000
     26 O2A         23.1730    26.5660    13.4480 o          1 WZG      -0.862000
     27 O3A         21.5890    24.6850    14.1620 os         1 WZG      -0.742800
     28 P2A         20.4710    24.3520    13.0390 p5         1 WZG       1.517800
     29 O4A         19.2210    25.1200    13.2910 o          1 WZG      -0.857000
     30 O5A         21.1160    24.4190    11.6800 o          1 WZG      -0.857000
     31 O6A         20.1710    22.8140    13.4210 os         1 WZG      -0.623400
     32 CBP         20.5860    20.6980    12.2460 c3         1 WZG      -0.085000
     33 CCP         21.1440    21.7830    13.1750 c3         1 WZG       0.229600
     34 CDP         19.3770    20.0400    12.9170 c3         1 WZG      -0.077100
     35 CEP         21.6940    19.6610    12.0310 c3         1 WZG      -0.077100
     36 CAP         20.1890    21.3730    10.8940 c3         1 WZG       0.127300
     37 OAP         21.2600    22.1310    10.3560 oh         1 WZG      -0.762000
     38 C9P         19.7200    20.3610     9.8500 c          1 WZG       0.598100
     39 O9P         18.6260    19.7960     9.9420 o          1 WZG      -0.683100
     40 N8P         20.5750    20.1440     8.8410 ns         1 WZG      -0.502900
     41 C7P         20.3320    19.1980     7.7660 c3         1 WZG       0.126000
     42 C6P         20.6360    17.7530     8.1670 c3         1 WZG      -0.179400
     43 C5P         22.0580    17.6080     8.6770 c          1 WZG       0.601100
     44 O5P         23.0080    18.1600     8.1160 o          1 WZG      -0.614100
     45 N4P         22.2060    16.8520     9.7800 ns         1 WZG      -0.501900
     46 C3P         23.4840    16.6650    10.4460 c3         1 WZG       0.092000
     47 C2P         24.2850    15.5080     9.8550 c3         1 WZG       0.049600
     48 S1P         25.9320    15.3190    10.6050 ss         1 WZG      -0.437000
     49 C1          25.4930    14.7290    12.2650 c3         1 WZG       0.041900
     50 H2A         25.5760    17.9690    12.4880 h5         1 WZG       0.003100
     51 H61A        25.2670    20.6800     8.9360 hn         1 WZG       0.488000
     52 H62A        24.9420    22.2680     9.5330 hn         1 WZG       0.488000
     53 H8A         24.3740    24.0910    14.0390 h5         1 WZG       0.139800
     54 H1B         24.3410    20.7140    15.8130 h2         1 WZG       0.073700
     55 H2B         26.6280    22.2520    15.9560 h1         1 WZG       0.049700
     56 HO2A        26.5990    21.6860    18.1640 ho         1 WZG       0.606000
     57 H3B         25.5760    24.3470    16.2540 h1         1 WZG       0.066700
     58 H4B         23.4890    23.1370    18.0820 h1         1 WZG       0.044700
     59 H51A        23.1730    25.4690    17.6790 h1         1 WZG       0.024700
     60 H52A        21.9250    24.5660    16.8050 h1         1 WZG       0.024700
     61 H121        21.3980    21.3340    14.1370 h1         1 WZG       0.052200
     62 H122        22.0490    22.2180    12.7530 h1         1 WZG       0.052200
     63 H131        19.6720    19.6410    13.8910 hc         1 WZG       0.026533
     64 H132        18.5710    20.7590    13.0740 hc         1 WZG       0.026533
     65 H133        18.9900    19.2220    12.3120 hc         1 WZG       0.026533
     66 H141        22.0870    19.3200    12.9900 hc         1 WZG       0.026533
     67 H142        21.3110    18.7910    11.4980 hc         1 WZG       0.026533
     68 H143        22.5210    20.0750    11.4560 hc         1 WZG       0.026533
     69 H10         19.3300    22.0210    11.0890 h1         1 WZG       0.070700
     70 HO1         21.2590    23.0140    10.8100 ho         1 WZG       0.560000
     71 HN8         21.4330    20.6720     8.8490 hn         1 WZG       0.363500
     72 H71         20.9590    19.4910     6.9270 h1         1 WZG       0.041200
     73 H72         19.2900    19.2700     7.4570 h1         1 WZG       0.041200
     74 H61         19.9220    17.4140     8.9170 hc         1 WZG       0.049700
     75 H62         20.5240    17.1120     7.2880 hc         1 WZG       0.049700
     76 HN4         21.3850    16.4370    10.1910 hn         1 WZG       0.306500
     77 H32         24.0540    17.5880    10.3590 h1         1 WZG       0.091700
     78 H31         23.2810    16.4910    11.5010 h1         1 WZG       0.091700
     79 H21         23.7410    14.5660     9.9510 h1         1 WZG       0.056200
     80 H22         24.4700    15.6880     8.7950 h1         1 WZG       0.056200
     81 H11         26.4280    14.4840    12.7670 h1         1 WZG       0.058033
     82 H5          24.9750    15.4960    12.8380 h1         1 WZG       0.058033
     83 H12         24.8760    13.8330    12.1970 h1         1 WZG       0.058033
@<TRIPOS>BOND
     1     1     2 ar  
     2     1     6 ar  
     3     2     3 ar  
     4     2    50 1   
     5     3     4 ar  
     6     4     5 ar  
     7     4    10 1   
     8     5     6 ar  
     9     5     8 1   
    10     6     7 1   
    11     7    51 1   
    12     7    52 1   
    13     8     9 2   
    14     9    10 1   
    15     9    53 1   
    16    10    11 1   
    17    11    12 1   
    18    11    21 1   
    19    11    54 1   
    20    12    13 1   
    21    12    14 1   
    22    12    55 1   
    23    13    56 1   
    24    14    15 1   
    25    14    20 1   
    26    14    57 1   
    27    15    16 1   
    28    16    17 1   
    29    16    18 1   
    30    16    19 1   
    31    20    21 1   
    32    20    22 1   
    33    20    58 1   
    34    22    23 1   
    35    22    59 1   
    36    22    60 1   
    37    23    24 1   
    38    24    25 1   
    39    24    26 1   
    40    24    27 1   
    41    27    28 1   
    42    28    29 1   
    43    28    30 1   
    44    28    31 1   
    45    31    33 1   
    46    32    33 1   
    47    32    34 1   
    48    32    35 1   
    49    32    36 1   
    50    33    61 1   
    51    33    62 1   
    52    34    63 1   
    53    34    64 1   
    54    34    65 1   
    55    35    66 1   
    56    35    67 1   
    57    35    68 1   
    58    36    37 1   
    59    36    38 1   
    60    36    69 1   
    61    37    70 1   
    62    38    39 2   
    63    38    40 1   
    64    40    41 1   
    65    40    71 1   
    66    41    42 1   
    67    41    72 1   
    68    41    73 1   
    69    42    43 1   
    70    42    74 1   
    71    42    75 1   
    72    43    44 2   
    73    43    45 1   
    74    45    46 1   
    75    45    76 1   
    76    46    47 1   
    77    46    77 1   
    78    46    78 1   
    79    47    48 1   
    80    47    79 1   
    81    47    80 1   
    82    48    49 1   
    83    49    81 1   
    84    49    82 1   
    85    49    83 1   
@<TRIPOS>SUBSTRUCTURE
     1 WZG         1 TEMP              0 ****  ****    0 ROOT
