@<TRIPOS>MOLECULE
WZG
   83    85     1     0     0
SMALL
No Charge or Current Charge


@<TRIPOS>ATOM
      1 N1A         25.7120    19.4340    11.2930 nb         1 WZG      -0.343000
      2 C2A         25.5460    18.9570    12.5490 ca         1 WZG       0.103900
      3 N3A         25.1930    19.6690    13.6450 nb         1 WZG      -0.194000
      4 C4A         24.9870    20.9890    13.4510 ca         1 WZG       0.090500
      5 C5A         25.1250    21.5710    12.2170 ca         1 WZG      -0.067600
      6 C6A         25.5010    20.7490    11.1310 ca         1 WZG       0.415900
      7 N6A         25.6670    21.2210     9.8670 nv         1 WZG      -1.082900
      8 N7A         24.8560    22.9340    12.2390 nc         1 WZG      -0.575100
      9 C8A         24.5410    23.1370    13.5350 cd         1 WZG       0.497700
     10 N9A         24.6290    21.9780    14.3310 na         1 WZG      -0.275300
     11 C1B         24.4290    21.8710    15.7740 c5         1 WZG       0.294300
     12 C2B         25.6630    22.2750    16.6630 c5         1 WZG       0.119300
     13 O2B         25.7110    21.5470    17.9120 oh         1 WZG      -0.841000
     14 C3B         25.3550    23.8140    16.8300 c5         1 WZG       0.208300
     15 O3B         26.0110    24.4260    17.9880 os         1 WZG      -0.590400
     16 P3B         27.5610    24.1340    18.3050 p5         1 WZG       1.306900
     17 O7A         28.0360    25.1100    19.3200 o          1 WZG      -0.914167
     18 O8A         28.3620    24.2730    17.0610 o          1 WZG      -0.914167
     19 O9A         27.6750    22.7530    18.8520 o          1 WZG      -0.914167
     20 C4B         23.8230    23.7480    17.0850 c5         1 WZG       0.136300
     21 O4B         23.3330    22.7360    16.1640 os         1 WZG      -0.466000
     22 C5B         23.0620    25.1000    16.9470 c3         1 WZG       0.242600
     23 O5B         23.1720    25.6190    15.6080 os         1 WZG      -0.611400
     24 P1A         21.8370    25.8830    14.7420 p5         1 WZG       1.493800
     25 O1A         20.8060    26.5530    15.5890 o          1 WZG      -0.862000
     26 O2A         22.2060    26.6840    13.5390 o          1 WZG      -0.862000
     27 O3A         21.5300    24.3780    14.4320 os         1 WZG      -0.742800
     28 P2A         20.5020    24.1880    13.2630 p5         1 WZG       1.517800
     29 O4A         19.2700    25.0210    13.3630 o          1 WZG      -0.857000
     30 O5A         21.1250    24.2200    11.9070 o          1 WZG      -0.857000
     31 O6A         20.1340    22.6630    13.6230 os         1 WZG      -0.623400
     32 CBP         20.5900    20.6110    12.3300 c3         1 WZG      -0.085000
     33 CCP         21.1120    21.6350    13.3880 c3         1 WZG       0.229600
     34 CDP         19.3430    19.8920    12.9230 c3         1 WZG      -0.077100
     35 CEP         21.7020    19.5470    12.1130 c3         1 WZG      -0.077100
     36 CAP         20.2240    21.3140    10.9660 c3         1 WZG       0.127300
     37 OAP         21.3410    22.1280    10.5020 oh         1 WZG      -0.762000
     38 C9P         19.7330    20.3240     9.8440 c          1 WZG       0.598100
     39 O9P         18.6130    19.8260     9.8060 o          1 WZG      -0.683100
     40 N8P         20.6480    20.1180     8.8350 ns         1 WZG      -0.502900
     41 C7P         20.4270    19.3230     7.6270 c3         1 WZG       0.126000
     42 C6P         20.6730    17.8180     7.8400 c3         1 WZG      -0.179400
     43 C5P         22.1220    17.5350     8.2330 c          1 WZG       0.601100
     44 O5P         23.0500    17.6410     7.4440 o          1 WZG      -0.614100
     45 N4P         22.3040    17.1120     9.5290 ns         1 WZG      -0.501900
     46 C3P         23.6050    16.7900    10.1290 c3         1 WZG       0.092000
     47 C2P         24.0810    15.3690     9.7670 c3         1 WZG       0.049600
     48 S1P         25.7200    14.9860    10.5430 ss         1 WZG      -0.437000
     49 C1          25.2100    14.7250    12.3040 c3         1 WZG       0.041900
     50 H2A         25.7150    17.8920    12.6930 h5         1 WZG       0.003100
     51 H61A        25.6550    20.5500     9.1060 hn         1 WZG       0.488000
     52 H62A        25.2920    22.1450     9.6700 hn         1 WZG       0.488000
     53 H8A         24.2610    24.0900    13.9660 h5         1 WZG       0.139800
     54 H1B         24.1580    20.8240    15.9550 h2         1 WZG       0.073700
     55 H2B         26.5990    22.1220    16.1080 h1         1 WZG       0.049700
     56 HO2A        26.5130    21.9810    18.3920 ho         1 WZG       0.606000
     57 H3B         25.5970    24.3850    15.9240 h1         1 WZG       0.066700
     58 H4B         23.6400    23.3770    18.1030 h1         1 WZG       0.044700
     59 H51A        23.4840    25.8170    17.6630 h1         1 WZG       0.024700
     60 H52A        22.0150    24.9300    17.2320 h1         1 WZG       0.024700
     61 H121        21.3300    21.1100    14.3280 h1         1 WZG       0.052200
     62 H122        22.0640    22.0570    13.0410 h1         1 WZG       0.052200
     63 H131        19.5600    19.4960    13.9230 hc         1 WZG       0.026533
     64 H132        18.4930    20.5790    13.0110 hc         1 WZG       0.026533
     65 H133        19.0310    19.0450    12.3010 hc         1 WZG       0.026533
     66 H141        22.0070    19.0980    13.0670 hc         1 WZG       0.026533
     67 H142        21.3470    18.7380    11.4660 hc         1 WZG       0.026533
     68 H143        22.5930    19.9880    11.6510 hc         1 WZG       0.026533
     69 H10         19.3640    21.9710    11.1510 h1         1 WZG       0.070700
     70 HO1         21.3010    22.9950    11.0350 ho         1 WZG       0.560000
     71 HN8         21.5050    20.6540     8.9380 hn         1 WZG       0.363500
     72 H71         21.0980    19.6950     6.8410 h1         1 WZG       0.041200
     73 H72         19.3960    19.4790     7.2820 h1         1 WZG       0.041200
     74 H61         19.9870    17.4550     8.6140 hc         1 WZG       0.049700
     75 H62         20.4610    17.3060     6.8950 hc         1 WZG       0.049700
     76 HN4         21.4720    17.0340    10.1010 hn         1 WZG       0.306500
     77 H32         24.3500    17.5180     9.7840 h1         1 WZG       0.091700
     78 H31         23.5220    16.8870    11.2190 h1         1 WZG       0.091700
     79 H21         23.3410    14.6300    10.1000 h1         1 WZG       0.056200
     80 H22         24.1810    15.2880     8.6770 h1         1 WZG       0.056200
     81 H11         26.0840    14.4390    12.9020 h1         1 WZG       0.058033
     82 H5          24.7830    15.6480    12.7160 h1         1 WZG       0.058033
     83 H12         24.4610    13.9250    12.3610 h1         1 WZG       0.058033
@<TRIPOS>BOND
     1     1     2 ar  
     2     1     6 ar  
     3     2     3 ar  
     4     2    50 1   
     5     3     4 ar  
     6     4     5 ar  
     7     4    10 1   
     8     5     6 ar  
     9     5     8 1   
    10     6     7 1   
    11     7    51 1   
    12     7    52 1   
    13     8     9 2   
    14     9    10 1   
    15     9    53 1   
    16    10    11 1   
    17    11    12 1   
    18    11    21 1   
    19    11    54 1   
    20    12    13 1   
    21    12    14 1   
    22    12    55 1   
    23    13    56 1   
    24    14    15 1   
    25    14    20 1   
    26    14    57 1   
    27    15    16 1   
    28    16    17 1   
    29    16    18 1   
    30    16    19 1   
    31    20    21 1   
    32    20    22 1   
    33    20    58 1   
    34    22    23 1   
    35    22    59 1   
    36    22    60 1   
    37    23    24 1   
    38    24    25 1   
    39    24    26 1   
    40    24    27 1   
    41    27    28 1   
    42    28    29 1   
    43    28    30 1   
    44    28    31 1   
    45    31    33 1   
    46    32    33 1   
    47    32    34 1   
    48    32    35 1   
    49    32    36 1   
    50    33    61 1   
    51    33    62 1   
    52    34    63 1   
    53    34    64 1   
    54    34    65 1   
    55    35    66 1   
    56    35    67 1   
    57    35    68 1   
    58    36    37 1   
    59    36    38 1   
    60    36    69 1   
    61    37    70 1   
    62    38    39 2   
    63    38    40 1   
    64    40    41 1   
    65    40    71 1   
    66    41    42 1   
    67    41    72 1   
    68    41    73 1   
    69    42    43 1   
    70    42    74 1   
    71    42    75 1   
    72    43    44 2   
    73    43    45 1   
    74    45    46 1   
    75    45    76 1   
    76    46    47 1   
    77    46    77 1   
    78    46    78 1   
    79    47    48 1   
    80    47    79 1   
    81    47    80 1   
    82    48    49 1   
    83    49    81 1   
    84    49    82 1   
    85    49    83 1   
@<TRIPOS>SUBSTRUCTURE
     1 WZG         1 TEMP              0 ****  ****    0 ROOT
