@<TRIPOS>MOLECULE
WZJ
   24    23     1     0     0
SMALL
bcc


@<TRIPOS>ATOM
      1 N           45.4460   -26.9490    -6.8080 n7         1 WZJ      -0.783200
      2 CA          46.0050   -25.7070    -7.3430 c3         1 WZJ       0.038500
      3 C           47.4990   -25.6390    -6.9150 c          1 WZJ       0.938600
      4 O           47.7750   -24.9800    -5.8910 o          1 WZJ      -0.835300
      5 CB          45.2110   -24.4270    -7.0290 c3         1 WZJ      -0.076700
      6 CN          45.2840   -27.0080    -5.3680 c3         1 WZJ       0.162100
      7 CG2         43.7230   -24.6100    -7.3210 c3         1 WZJ      -0.089100
      8 CG1         45.7770   -23.2500    -7.8300 c3         1 WZJ      -0.064400
      9 CD1         45.2330   -21.8870    -7.4200 c3         1 WZJ      -0.083100
     10 O1          48.3000   -26.2880    -7.6160 o          1 WZJ      -0.835300
     11 H1          44.5510   -27.1240    -7.2440 hn         1 WZJ       0.309800
     12 H3          45.9840   -25.8310    -8.4340 h1         1 WZJ       0.035700
     13 H4          45.3270   -24.1920    -5.9660 hc         1 WZJ       0.064700
     14 H5          44.7700   -27.9340    -5.1100 h1         1 WZJ       0.014700
     15 H6          46.2540   -27.0290    -4.8710 h1         1 WZJ       0.014700
     16 H7          44.7110   -26.1810    -4.9280 h1         1 WZJ       0.014700
     17 H8          43.2680   -25.3760    -6.6900 hc         1 WZJ       0.012700
     18 H9          43.1620   -23.6920    -7.1450 hc         1 WZJ       0.012700
     19 H10         43.5590   -24.8980    -8.3630 hc         1 WZJ       0.012700
     20 H11         45.5810   -23.4180    -8.8960 hc         1 WZJ       0.044700
     21 H12         46.8630   -23.2280    -7.7220 hc         1 WZJ       0.044700
     22 H13         45.7200   -21.0870    -7.9780 hc         1 WZJ       0.015367
     23 H14         44.1600   -21.7960    -7.5960 hc         1 WZJ       0.015367
     24 H15         45.4090   -21.7010    -6.3580 hc         1 WZJ       0.015367
@<TRIPOS>BOND
     1     1     2 1   
     2     1     6 1   
     3     1    11 1   
     4     2     3 1   
     5     2     5 1   
     6     2    12 1   
     7     3     4 1   
     8     3    10 1   
     9     5     7 1   
    10     5     8 1   
    11     5    13 1   
    12     6    14 1   
    13     6    15 1   
    14     6    16 1   
    15     7    17 1   
    16     7    18 1   
    17     7    19 1   
    18     8     9 1   
    19     8    20 1   
    20     8    21 1   
    21     9    22 1   
    22     9    23 1   
    23     9    24 1   
@<TRIPOS>SUBSTRUCTURE
     1 WZJ         1 TEMP              0 ****  ****    0 ROOT
