@<TRIPOS>MOLECULE
WZJ
   24    23     1     0     0
SMALL
No Charge or Current Charge


@<TRIPOS>ATOM
      1 N           45.3070   -26.9720    -6.7390 n7         1 WZJ      -0.838400
      2 CA          45.9960   -25.7650    -7.3330 c3         1 WZJ       0.038500
      3 C           47.5420   -25.6480    -6.9750 c          1 WZJ       0.728000
      4 O           47.8790   -25.1400    -5.9110 o          1 WZJ      -0.730000
      5 CB          45.1890   -24.4430    -7.0540 c3         1 WZJ      -0.076700
      6 CN          45.3380   -27.1040    -5.2680 c3         1 WZJ       0.162100
      7 CG2         43.6790   -24.5880    -7.4050 c3         1 WZJ      -0.089100
      8 CG1         45.8220   -23.2250    -7.7980 c3         1 WZJ      -0.064400
      9 CD1         45.2040   -21.8510    -7.4570 c3         1 WZJ      -0.083100
     10 O1          48.3550   -26.0670    -7.7920 o          1 WZJ      -0.730000
     11 H1          44.3240   -26.9440    -7.0310 hn         1 WZJ       0.365000
     12 H3          45.9700   -25.8930    -8.4240 h1         1 WZJ       0.035700
     13 H4          45.2540   -24.2340    -5.9790 hc         1 WZJ       0.064700
     14 H5          44.7990   -28.0080    -4.9570 h1         1 WZJ       0.014700
     15 H6          46.3690   -27.1850    -4.9000 h1         1 WZJ       0.014700
     16 H7          44.8610   -26.2420    -4.7830 h1         1 WZJ       0.014700
     17 H8          43.2050   -25.3960    -6.8340 hc         1 WZJ       0.012700
     18 H9          43.1240   -23.6750    -7.1630 hc         1 WZJ       0.012700
     19 H10         43.5450   -24.7980    -8.4730 hc         1 WZJ       0.012700
     20 H11         45.7560   -23.3850    -8.8810 hc         1 WZJ       0.044700
     21 H12         46.8900   -23.1630    -7.5620 hc         1 WZJ       0.044700
     22 H13         45.7960   -21.0480    -7.9110 hc         1 WZJ       0.015367
     23 H14         44.1810   -21.7660    -7.8410 hc         1 WZJ       0.015367
     24 H15         45.1860   -21.6910    -6.3720 hc         1 WZJ       0.015367
@<TRIPOS>BOND
     1     1     2 1   
     2     1     6 1   
     3     1    11 1   
     4     2     3 1   
     5     2     5 1   
     6     2    12 1   
     7     3     4 1   
     8     3    10 1   
     9     5     7 1   
    10     5     8 1   
    11     5    13 1   
    12     6    14 1   
    13     6    15 1   
    14     6    16 1   
    15     7    17 1   
    16     7    18 1   
    17     7    19 1   
    18     8     9 1   
    19     8    20 1   
    20     8    21 1   
    21     9    22 1   
    22     9    23 1   
    23     9    24 1   
@<TRIPOS>SUBSTRUCTURE
     1 WZJ         1 TEMP              0 ****  ****    0 ROOT
