@<TRIPOS>MOLECULE
WZK
   53    56     1     0     0
SMALL
No Charge or Current Charge


@<TRIPOS>ATOM
      1 N1         -26.7090     4.9820    26.2120 nh         1 WZK      -0.838400
      2 N3         -16.9900     4.6630    25.1030 nb         1 WZK      -0.654000
      3 C4         -25.0420     6.1750    27.5690 ca         1 WZK      -0.192000
      4 C5         -23.8060     6.2110    28.2360 ca         1 WZK      -0.063000
      5 C6         -24.6020     3.9030    26.8680 ca         1 WZK      -0.192000
      6 C7         -23.3640     3.9360    27.5320 ca         1 WZK      -0.063000
      7 C8         -22.9760     5.0720    28.2710 ca         1 WZK      -0.138000
      8 C10        -21.9520     4.5410    31.1980 cc         1 WZK      -0.233300
      9 C13        -23.2150     2.9520    32.6870 cc         1 WZK      -0.237000
     10 C15        -20.4450     4.6020    26.6550 c3         1 WZK      -0.113100
     11 C17        -18.1760     4.3090    25.6370 ca         1 WZK       0.326900
     12 C20        -17.3110     8.3300    25.1310 ca         1 WZK      -0.115000
     13 C21        -18.1950     9.3510    25.4930 ca         1 WZK      -0.079000
     14 C22        -19.4450     9.0240    26.0310 ca         1 WZK      -0.133000
     15 C24        -18.9320     6.6230    25.8650 ca         1 WZK      -0.039000
     16 O2         -19.4510     4.4460    28.8360 o          1 WZK      -0.582100
     17 C14        -20.4640     4.7120    28.1980 c          1 WZK       0.606100
     18 C16        -19.1820     5.2220    26.0330 ca         1 WZK      -0.096300
     19 C23        -19.8270     7.6840    26.2120 ca         1 WZK       0.137100
     20 O1         -21.0790     7.4820    26.7110 oh         1 WZK      -0.548100
     21 C19        -17.6700     6.9810    25.3150 ca         1 WZK      -0.073000
     22 C18        -16.7510     5.9800    24.9500 ca         1 WZK       0.358900
     23 N2         -21.6500     5.1620    28.8400 n          1 WZK      -0.233400
     24 C9         -21.5440     5.6300    30.2430 c3         1 WZK       0.178300
     25 S1         -23.6340     4.3340    31.6820 ss         1 WZK       0.222000
     26 C12        -21.8720     2.6950    32.6220 cd         1 WZK       0.089000
     27 Cl1        -21.0700     1.4100    33.4640 cl         1 WZK      -0.183000
     28 C11        -21.1560     3.5870    31.7830 cd         1 WZK      -0.099000
     29 C3         -25.4610     5.0180    26.8860 ca         1 WZK       0.350000
     30 C2         -27.4470     3.7100    26.0170 c3         1 WZK       0.221100
     31 C1         -27.3370     6.2140    25.6760 c3         1 WZK       0.221100
     32 H1         -25.6710     7.0580    27.5870 ha         1 WZK       0.118000
     33 H2         -23.4980     7.1340    28.7220 ha         1 WZK       0.121500
     34 H3         -24.8800     3.0060    26.3240 ha         1 WZK       0.118000
     35 H4         -22.7220     3.0590    27.4960 ha         1 WZK       0.121500
     36 H5         -23.9850     2.4340    33.2420 h4         1 WZK       0.162000
     37 H6         -21.3570     4.9900    26.1950 hc         1 WZK       0.069700
     38 H7         -20.4800     3.5290    26.4340 hc         1 WZK       0.069700
     39 H9         -16.3410     8.5890    24.7110 ha         1 WZK       0.119000
     40 H10        -17.9150    10.3940    25.3540 ha         1 WZK       0.118000
     41 H11        -20.1350     9.8190    26.3030 ha         1 WZK       0.129000
     42 H12        -21.3670     6.5790    26.4780 ho         1 WZK       0.466000
     43 H13        -15.7820     6.2410    24.5250 h4         1 WZK       0.020100
     44 H14        -20.5200     5.9550    30.4640 h1         1 WZK       0.076200
     45 H15        -22.1900     6.5040    30.3930 h1         1 WZK       0.076200
     46 H16        -20.0850     3.5160    31.6190 ha         1 WZK       0.161000
     47 H17        -27.3100     3.0480    26.8830 h1         1 WZK       0.038533
     48 H18        -28.5240     3.8960    25.9100 h1         1 WZK       0.038533
     49 H19        -27.0920     3.1930    25.1160 h1         1 WZK       0.038533
     50 H20        -26.5720     6.8970    25.2810 h1         1 WZK       0.038533
     51 H21        -28.0240     5.9760    24.8520 h1         1 WZK       0.038533
     52 H22        -27.9020     6.7320    26.4620 h1         1 WZK       0.038533
     53 H8         -18.3250     3.2370    25.7580 h4         1 WZK       0.016100
@<TRIPOS>BOND
     1     1    29 1   
     2     1    30 1   
     3     1    31 1   
     4     2    11 ar  
     5     2    22 ar  
     6     3     4 ar  
     7     3    29 ar  
     8     3    32 1   
     9     4     7 ar  
    10     4    33 1   
    11     5     6 ar  
    12     5    29 ar  
    13     5    34 1   
    14     6     7 ar  
    15     6    35 1   
    16     7    23 1   
    17     8    24 1   
    18     8    25 1   
    19     8    28 2   
    20     9    25 1   
    21     9    26 2   
    22     9    36 1   
    23    10    17 1   
    24    10    18 1   
    25    10    37 1   
    26    10    38 1   
    27    11    18 ar  
    28    11    53 1   
    29    12    13 ar  
    30    12    21 ar  
    31    12    39 1   
    32    13    14 ar  
    33    13    40 1   
    34    14    19 ar  
    35    14    41 1   
    36    15    18 ar  
    37    15    19 ar  
    38    15    21 ar  
    39    16    17 2   
    40    17    23 1   
    41    19    20 1   
    42    20    42 1   
    43    21    22 ar  
    44    22    43 1   
    45    23    24 1   
    46    24    44 1   
    47    24    45 1   
    48    26    27 1   
    49    26    28 1   
    50    28    46 1   
    51    30    47 1   
    52    30    48 1   
    53    30    49 1   
    54    31    50 1   
    55    31    51 1   
    56    31    52 1   
@<TRIPOS>SUBSTRUCTURE
     1 WZK         1 TEMP              0 ****  ****    0 ROOT
