@<TRIPOS>MOLECULE
WZK
   53    56     1     0     0
SMALL
abcg2


@<TRIPOS>ATOM
      1 N1         -26.8330     4.6600    26.3720 nh         1 WZK      -0.838400
      2 N3         -17.4400     4.4280    24.9360 nb         1 WZK      -0.654000
      3 C4         -25.1980     6.1830    27.3180 ca         1 WZK      -0.192000
      4 C5         -23.9660     6.3970    27.9100 ca         1 WZK      -0.063000
      5 C6         -24.7240     3.8170    27.2270 ca         1 WZK      -0.192000
      6 C7         -23.5010     4.0490    27.8320 ca         1 WZK      -0.063000
      7 C8         -23.1000     5.3380    28.1680 ca         1 WZK      -0.138000
      8 C10        -22.1240     4.5660    31.0570 cc         1 WZK      -0.233300
      9 C13        -23.1590     2.6240    32.2270 cc         1 WZK      -0.237000
     10 C15        -20.6680     5.1470    26.7060 c3         1 WZK      -0.113100
     11 C17        -18.6560     4.3670    25.5350 ca         1 WZK       0.326900
     12 C20        -16.7590     8.0240    25.2180 ca         1 WZK      -0.115000
     13 C21        -17.3250     9.1780    25.6940 ca         1 WZK      -0.079000
     14 C22        -18.6140     9.1500    26.2490 ca         1 WZK      -0.133000
     15 C24        -18.7630     6.7400    25.9140 ca         1 WZK      -0.039000
     16 O2         -19.5810     5.4500    28.8270 o          1 WZK      -0.582100
     17 C14        -20.6430     5.4070    28.2120 c          1 WZK       0.606100
     18 C16        -19.3530     5.4430    26.0330 ca         1 WZK      -0.096300
     19 C23        -19.3300     7.9780    26.3440 ca         1 WZK       0.137100
     20 O1         -20.5770     8.0850    26.8960 oh         1 WZK      -0.548100
     21 C19        -17.4630     6.8050    25.3220 ca         1 WZK      -0.073000
     22 C18        -16.8750     5.6060    24.8490 ca         1 WZK       0.358900
     23 N2         -21.8470     5.5710    28.8190 n          1 WZK      -0.233400
     24 C9         -21.8820     5.8170    30.2700 c3         1 WZK       0.178300
     25 S1         -23.7240     4.0600    31.4740 ss         1 WZK       0.222000
     26 C12        -21.7990     2.5540    32.1450 cd         1 WZK       0.089000
     27 CL1        -20.8700     1.2390    32.8050 cl         1 WZK      -0.183000
     28 C11        -21.1960     3.6550    31.4810 cd         1 WZK      -0.099000
     29 C3         -25.6150     4.8810    26.9550 ca         1 WZK       0.350000
     30 C2         -27.2150     3.3200    25.9640 c3         1 WZK       0.221100
     31 C1         -27.7080     5.7760    26.0650 c3         1 WZK       0.221100
     32 H1         -25.8380     7.0320    27.1310 ha         1 WZK       0.118000
     33 H2         -23.6680     7.4050    28.1740 ha         1 WZK       0.121500
     34 H3         -24.9940     2.8030    26.9750 ha         1 WZK       0.118000
     35 H4         -22.8440     3.2160    28.0460 ha         1 WZK       0.121500
     36 H5         -23.8380     1.9240    32.6850 h4         1 WZK       0.162000
     37 H6         -21.5150     5.6470    26.2310 hc         1 WZK       0.069700
     38 H7         -20.8840     4.0840    26.5780 hc         1 WZK       0.069700
     39 H9         -15.7750     8.0240    24.7670 ha         1 WZK       0.119000
     40 H10        -16.7950    10.1200    25.6310 ha         1 WZK       0.118000
     41 H11        -19.0810    10.0620    26.5980 ha         1 WZK       0.129000
     42 H12        -21.1660     7.3980    26.5680 ho         1 WZK       0.466000
     43 H13        -15.8940     5.6600    24.3860 h4         1 WZK       0.020100
     44 H14        -20.9260     6.2460    30.5550 h1         1 WZK       0.076200
     45 H15        -22.6640     6.5510    30.4620 h1         1 WZK       0.076200
     46 H16        -20.1330     3.7610    31.3260 ha         1 WZK       0.161000
     47 H17        -27.2290     2.6310    26.8140 h1         1 WZK       0.038533
     48 H18        -28.2130     3.3520    25.5380 h1         1 WZK       0.038533
     49 H19        -26.5310     2.9130    25.2110 h1         1 WZK       0.038533
     50 H20        -27.2450     6.4770    25.3620 h1         1 WZK       0.038533
     51 H21        -28.6210     5.3950    25.6150 h1         1 WZK       0.038533
     52 H22        -27.9800     6.3330    26.9670 h1         1 WZK       0.038533
     53 H8         -19.0860     3.3760    25.6210 h4         1 WZK       0.016100
@<TRIPOS>BOND
     1     1    29 1   
     2     1    30 1   
     3     1    31 1   
     4     2    11 ar  
     5     2    22 ar  
     6     3     4 ar  
     7     3    29 ar  
     8     3    32 1   
     9     4     7 ar  
    10     4    33 1   
    11     5     6 ar  
    12     5    29 ar  
    13     5    34 1   
    14     6     7 ar  
    15     6    35 1   
    16     7    23 1   
    17     8    24 1   
    18     8    25 1   
    19     8    28 2   
    20     9    25 1   
    21     9    26 2   
    22     9    36 1   
    23    10    17 1   
    24    10    18 1   
    25    10    37 1   
    26    10    38 1   
    27    11    18 ar  
    28    11    53 1   
    29    12    13 ar  
    30    12    21 ar  
    31    12    39 1   
    32    13    14 ar  
    33    13    40 1   
    34    14    19 ar  
    35    14    41 1   
    36    15    18 ar  
    37    15    19 ar  
    38    15    21 ar  
    39    16    17 2   
    40    17    23 1   
    41    19    20 1   
    42    20    42 1   
    43    21    22 ar  
    44    22    43 1   
    45    23    24 1   
    46    24    44 1   
    47    24    45 1   
    48    26    27 1   
    49    26    28 1   
    50    28    46 1   
    51    30    47 1   
    52    30    48 1   
    53    30    49 1   
    54    31    50 1   
    55    31    51 1   
    56    31    52 1   
@<TRIPOS>SUBSTRUCTURE
     1 WZK         1 TEMP              0 ****  ****    0 ROOT
