@<TRIPOS>MOLECULE
WZM
   29    30     1     0     0
SMALL
bcc


@<TRIPOS>ATOM
      1 C4          16.4860    64.5460    39.1350 ca         1 WZM       0.230800
      2 C5          17.2880    63.7780    38.1370 c          1 WZM       0.590600
      3 C6          13.5350    66.3400    42.6770 c3         1 WZM       0.213100
      4 C7          14.4630    68.3190    41.4220 cy         1 WZM       0.226500
      5 C8          13.9720    69.2640    42.5300 cy         1 WZM      -0.096400
      6 C9          15.0680    70.2500    42.0870 cy         1 WZM      -0.094400
      7 C10         15.8120    69.0600    41.4570 cy         1 WZM      -0.096400
      8 N1          15.7170    66.5980    39.8010 nb         1 WZM      -0.409000
      9 N2          16.3960    65.8510    38.9790 nb         1 WZM      -0.283000
     10 C3          15.0870    66.0500    40.8530 ca         1 WZM       0.640200
     11 N3          17.8370    64.5100    37.1610 nt         1 WZM      -0.657000
     12 C1          15.8520    63.8950    40.2010 ca         1 WZM      -0.112300
     13 C2          15.1360    64.6520    41.0790 ca         1 WZM      -0.282300
     14 N4          14.4170    66.8880    41.6670 nh         1 WZM      -0.768300
     15 O1          17.4120    62.5650    38.2390 o          1 WZM      -0.617100
     16 H5          12.9210    67.1300    43.0960 h1         1 WZM       0.042700
     17 H6          12.8580    65.5960    42.2530 h1         1 WZM       0.042700
     18 H7          14.0860    65.8750    43.4980 h1         1 WZM       0.042700
     19 H8          13.9480    68.5580    40.4850 h1         1 WZM       0.067700
     20 H10         12.9310    69.5850    42.5060 hc         1 WZM       0.059950
     21 H9          14.2020    68.8740    43.5230 hc         1 WZM       0.059950
     22 H12         15.5760    70.8140    42.8680 hc         1 WZM       0.054200
     23 H11         14.7070    70.9470    41.3300 hc         1 WZM       0.054200
     24 H13         16.4940    68.5940    42.1700 hc         1 WZM       0.059950
     25 H14         16.3280    69.2130    40.5120 hc         1 WZM       0.059950
     26 H3          18.3950    64.0720    36.4470 hn         1 WZM       0.326500
     27 H4          17.7040    65.5070    37.1300 hn         1 WZM       0.326500
     28 H1          15.9340    62.8240    40.3240 ha         1 WZM       0.168000
     29 H2          14.6390    64.1950    41.9220 ha         1 WZM       0.149000
@<TRIPOS>BOND
     1     1     2 1   
     2     1     9 ar  
     3     1    12 ar  
     4     2    11 1   
     5     2    15 2   
     6     3    14 1   
     7     3    16 1   
     8     3    17 1   
     9     3    18 1   
    10     4     5 1   
    11     4     7 1   
    12     4    14 1   
    13     4    19 1   
    14     5     6 1   
    15     5    20 1   
    16     5    21 1   
    17     6     7 1   
    18     6    22 1   
    19     6    23 1   
    20     7    24 1   
    21     7    25 1   
    22     8     9 ar  
    23     8    10 ar  
    24    10    13 ar  
    25    10    14 1   
    26    11    26 1   
    27    11    27 1   
    28    12    13 ar  
    29    12    28 1   
    30    13    29 1   
@<TRIPOS>SUBSTRUCTURE
     1 WZM         1 TEMP              0 ****  ****    0 ROOT
