@<TRIPOS>MOLECULE
WZM
   29    30     1     0     0
SMALL
No Charge or Current Charge


@<TRIPOS>ATOM
      1 C4          16.5700    64.5510    39.1430 ca         1 WZM       0.165500
      2 C5          17.4240    63.7250    38.1880 c          1 WZM       0.523600
      3 C6          13.0660    66.3550    42.2860 c3         1 WZM       0.213100
      4 C7          14.3430    68.4260    41.5210 cy         1 WZM       0.226500
      5 C8          14.2610    69.1940    42.8850 cy         1 WZM      -0.096400
      6 C9          15.1980    70.2540    42.2190 cy         1 WZM      -0.094400
      7 C10         15.7830    69.0450    41.4190 cy         1 WZM      -0.096400
      8 N1          15.4240    66.5650    39.5950 nb         1 WZM      -0.409000
      9 N2          16.1800    65.8040    38.7740 nb         1 WZM      -0.283000
     10 C3          15.0320    66.1120    40.8130 ca         1 WZM       0.574900
     11 N3          17.7640    64.2790    36.9970 nt         1 WZM      -0.590000
     12 C1          16.1850    64.0270    40.3970 ca         1 WZM      -0.029000
     13 C2          15.3960    64.8250    41.2480 ca         1 WZM      -0.199000
     14 N4          14.2250    66.9670    41.6010 nh         1 WZM      -0.768300
     15 O1          17.8140    62.5950    38.4440 o          1 WZM      -0.617100
     16 H5          12.2540    67.0860    42.4040 h1         1 WZM       0.042700
     17 H6          12.6690    65.5120    41.7050 h1         1 WZM       0.042700
     18 H7          13.3550    65.9930    43.2810 h1         1 WZM       0.042700
     19 H8          13.6570    68.8450    40.7720 h1         1 WZM       0.067700
     20 H10         13.2650    69.5470    43.1730 hc         1 WZM       0.059950
     21 H9          14.7040    68.6640    43.7370 hc         1 WZM       0.059950
     22 H12         15.8940    70.7690    42.8900 hc         1 WZM       0.054200
     23 H11         14.6810    71.0030    41.6060 hc         1 WZM       0.054200
     24 H13         16.5630    68.4830    41.9470 hc         1 WZM       0.059950
     25 H14         16.1370    69.2700    40.4070 hc         1 WZM       0.059950
     26 H3          18.3290    63.7540    36.3460 hn         1 WZM       0.326500
     27 H4          17.4500    65.2120    36.7710 hn         1 WZM       0.326500
     28 H1          16.4920    63.0280    40.6990 ha         1 WZM       0.150000
     29 H2          15.0870    64.4580    42.2210 ha         1 WZM       0.131000
@<TRIPOS>BOND
     1     1     2 1   
     2     1     9 ar  
     3     1    12 ar  
     4     2    11 1   
     5     2    15 2   
     6     3    14 1   
     7     3    16 1   
     8     3    17 1   
     9     3    18 1   
    10     4     5 1   
    11     4     7 1   
    12     4    14 1   
    13     4    19 1   
    14     5     6 1   
    15     5    20 1   
    16     5    21 1   
    17     6     7 1   
    18     6    22 1   
    19     6    23 1   
    20     7    24 1   
    21     7    25 1   
    22     8     9 ar  
    23     8    10 ar  
    24    10    13 ar  
    25    10    14 1   
    26    11    26 1   
    27    11    27 1   
    28    12    13 ar  
    29    12    28 1   
    30    13    29 1   
@<TRIPOS>SUBSTRUCTURE
     1 WZM         1 TEMP              0 ****  ****    0 ROOT
