@<TRIPOS>MOLECULE
WZO
   52    54     1     0     0
SMALL
abcg2


@<TRIPOS>ATOM
      1 C2           4.2800    -2.2640     1.7430 cc         1 WZO       0.789800
      2 C8           1.9170    -0.1080    -1.2360 cc         1 WZO       0.000700
      3 C4           3.1720    -0.9370     0.3710 cd         1 WZO       0.255400
      4 C5           2.9010    -1.9260    -0.5400 cc         1 WZO      -0.339600
      5 C6           3.3430    -3.2560    -0.2990 c          1 WZO       0.664600
      6 OC2         -0.3110     1.2760    -2.5330 o          1 WZO      -0.841000
      7 PC          -1.3860     1.7630    -1.6020 p5         1 WZO       1.484800
      8 OC1         -2.7880     1.9550    -2.0740 o          1 WZO      -0.841000
      9 OBC         -1.4090     0.8630    -0.2200 os         1 WZO      -0.691800
     10 PB          -1.8470    -0.7030    -0.1200 p5         1 WZO       1.912300
     11 OB          -2.0230    -1.2860    -1.4810 o          1 WZO      -0.806500
     12 SB          -3.3890    -0.8290     1.1380 s          1 WZO      -1.439000
     13 OAB         -0.4980    -1.2150     0.6350 os         1 WZO      -0.720800
     14 PA          -0.2750    -2.6960     1.3830 p5         1 WZO       1.447800
     15 OA2          1.1270    -2.7010     1.8970 o          1 WZO      -0.865500
     16 OA1         -1.2510    -2.5240     2.6790 oh         1 WZO      -0.815400
     17 OA3         -0.7880    -3.7590     0.4640 o          1 WZO      -0.865500
     18 O5          -0.9110     3.1710    -0.9130 os         1 WZO      -0.572400
     19 C9           1.1630     3.3600     0.3610 c5         1 WZO       0.100300
     20 C3           2.6200     3.8320     0.3050 c5         1 WZO       0.096300
     21 O3           3.1410     4.1410     1.5700 oh         1 WZO      -0.705000
     22 C7           3.3200     2.5600    -0.1780 c5         1 WZO       0.113300
     23 O2           4.6690     2.4360     0.1160 os         1 WZO      -0.420000
     24 CM2          5.4960     3.2860    -0.6470 c3         1 WZO       0.150900
     25 C1           2.5300     1.4890     0.5690 c5         1 WZO       0.325300
     26 O4           1.2190     1.9540     0.6360 os         1 WZO      -0.372000
     27 N9           2.5530     0.1970    -0.0950 na         1 WZO      -0.037700
     28 N3           3.8560    -1.0440     1.5070 nd         1 WZO      -0.681100
     29 N2           4.9920    -2.5200     2.8450 nv         1 WZO      -1.055200
     30 N1           4.0800    -3.3010     0.8830 ns         1 WZO      -0.421400
     31 O6           3.1710    -4.2490    -0.9810 o          1 WZO      -0.538000
     32 N7           2.1190    -1.3720    -1.5270 na         1 WZO       0.117000
     33 CM7          1.4970    -2.0820    -2.6310 c3         1 WZO       0.041900
     34 H1           1.3010     0.5690    -1.8350 h5         1 WZO       0.298000
     35 H3          -2.1200    -2.1560     2.3970 ho         1 WZO       0.491000
     36 H6           0.9750     3.2220    -1.7890 h1         1 WZO       0.014700
     37 H7           0.3870     4.7210    -1.0790 h1         1 WZO       0.014700
     38 H8           0.6300     3.8460     1.1850 h1         1 WZO       0.089700
     39 H9           2.7360     4.6660    -0.3980 h1         1 WZO       0.041700
     40 H10          2.6800     4.9150     1.9080 ho         1 WZO       0.500000
     41 H11          3.1390     2.4590    -1.2600 h1         1 WZO       0.056700
     42 H12          6.5290     3.0490    -0.3960 h1         1 WZO       0.024367
     43 H13          5.3540     3.1320    -1.7220 h1         1 WZO       0.024367
     44 H14          5.3230     4.3430    -0.4250 h1         1 WZO       0.024367
     45 H15          2.9600     1.3170     1.5620 h2         1 WZO       0.124700
     46 H16          5.0590    -1.8000     3.5440 hn         1 WZO       0.498500
     47 H17          5.1830    -3.4640     3.1400 hn         1 WZO       0.498500
     48 H18          4.4370    -4.2120     1.1390 hn         1 WZO       0.316500
     49 H19          0.8670    -2.8710    -2.2340 h1         1 WZO       0.092700
     50 H20          0.8800    -1.3790    -3.1770 h1         1 WZO       0.092700
     51 H21          2.2650    -2.5000    -3.2760 h1         1 WZO       0.092700
     52 C10          0.4240     3.6360    -0.9410 c3         1 WZO       0.229600
@<TRIPOS>BOND
     1     1    28 2   
     2     1    29 1   
     3     1    30 1   
     4     2    27 2   
     5     2    32 1   
     6     2    34 1   
     7     3     4 2   
     8     3    27 1   
     9     3    28 1   
    10     4     5 1   
    11     4    32 1   
    12     5    30 1   
    13     5    31 2   
    14     6     7 1   
    15     7     8 1   
    16     7     9 1   
    17     7    18 1   
    18     9    10 1   
    19    10    11 1   
    20    10    12 1   
    21    10    13 1   
    22    13    14 1   
    23    14    15 1   
    24    14    16 1   
    25    14    17 1   
    26    16    35 1   
    27    18    52 1   
    28    19    20 1   
    29    19    26 1   
    30    19    38 1   
    31    19    52 1   
    32    20    21 1   
    33    20    22 1   
    34    20    39 1   
    35    21    40 1   
    36    22    23 1   
    37    22    25 1   
    38    22    41 1   
    39    23    24 1   
    40    24    42 1   
    41    24    43 1   
    42    24    44 1   
    43    25    26 1   
    44    25    27 1   
    45    25    45 1   
    46    29    46 1   
    47    29    47 1   
    48    30    48 1   
    49    32    33 1   
    50    33    49 1   
    51    33    50 1   
    52    33    51 1   
    53    36    52 1   
    54    37    52 1   
@<TRIPOS>SUBSTRUCTURE
     1 WZO         1 TEMP              0 ****  ****    0 ROOT
