@<TRIPOS>MOLECULE
WZO
   52    54     1     0     0
SMALL
No Charge or Current Charge


@<TRIPOS>ATOM
      1 C2           4.3470    -2.4710     1.6550 cc         1 WZO       0.789800
      2 C8           2.2460    -0.2430    -1.5550 cc         1 WZO       0.000700
      3 C4           3.2820    -1.0900     0.2390 cd         1 WZO       0.255400
      4 C5           3.2150    -2.0940    -0.6940 cc         1 WZO      -0.339600
      5 C6           3.7520    -3.4200    -0.4310 c          1 WZO       0.664600
      6 OC2         -0.7910     0.6220    -2.0290 o          1 WZO      -0.841000
      7 PC          -1.6590     1.5910    -1.3020 p5         1 WZO       1.484800
      8 OC1         -3.0030     1.7580    -1.9260 o          1 WZO      -0.841000
      9 OBC         -1.7420     1.3840     0.2420 os         1 WZO      -0.691800
     10 PB          -2.1660    -0.1000     0.5240 p5         1 WZO       1.912300
     11 OB          -3.1210    -0.7060    -0.4470 o          1 WZO      -0.806500
     12 SB          -2.9140    -0.0420     2.3660 s          1 WZO      -1.439000
     13 OAB         -0.7460    -0.7550     0.5880 os         1 WZO      -0.720800
     14 PA          -0.7970    -2.1830     1.2150 p5         1 WZO       1.447800
     15 OA2          0.4600    -2.9170     0.9160 o          1 WZO      -0.865500
     16 OA1         -0.7970    -1.7990     2.7490 oh         1 WZO      -0.815400
     17 OA3         -1.9810    -3.0120     0.8780 o          1 WZO      -0.865500
     18 O5          -0.9570     3.0420    -1.2830 os         1 WZO      -0.572400
     19 C9           1.0030     3.0800     0.2340 c5         1 WZO       0.100300
     20 C3           2.4280     3.7020     0.4180 c5         1 WZO       0.096300
     21 O3           2.7340     3.8980     1.8140 oh         1 WZO      -0.705000
     22 C7           3.2570     2.5510    -0.2510 c5         1 WZO       0.113300
     23 O2           4.6590     2.6350     0.1330 os         1 WZO      -0.420000
     24 CM2          5.4140     3.7510    -0.3700 c3         1 WZO       0.150900
     25 C1           2.5870     1.3150     0.4110 c5         1 WZO       0.325300
     26 O4           1.1950     1.6850     0.5990 os         1 WZO      -0.372000
     27 N9           2.6830     0.0270    -0.2790 na         1 WZO      -0.037700
     28 N3           3.8930    -1.2550     1.4750 nd         1 WZO      -0.681100
     29 N2           4.9400    -2.7070     2.8130 nv         1 WZO      -1.055200
     30 N1           4.3060    -3.5020     0.7930 ns         1 WZO      -0.421400
     31 O6           3.7320    -4.3580    -1.2100 o          1 WZO      -0.538000
     32 N7           2.5450    -1.5750    -1.8060 na         1 WZO       0.117000
     33 CM7          2.1980    -2.3110    -3.0290 c3         1 WZO       0.041900
     34 H1           1.6930     0.4180    -2.2110 h5         1 WZO       0.298000
     35 H3          -1.5820    -1.1740     2.6850 ho         1 WZO       0.491000
     36 H6           0.9790     2.5230    -1.8940 h1         1 WZO       0.014700
     37 H7           0.7040     4.2330    -1.5790 h1         1 WZO       0.014700
     38 H8           0.2730     3.5380     0.9140 h1         1 WZO       0.089700
     39 H9           2.5340     4.6460    -0.1340 h1         1 WZO       0.041700
     40 H10          2.2680     4.7140     2.1100 ho         1 WZO       0.500000
     41 H11          3.1720     2.5400    -1.3460 h1         1 WZO       0.056700
     42 H12          6.4600     3.6790    -0.0470 h1         1 WZO       0.024367
     43 H13          5.3950     3.7700    -1.4670 h1         1 WZO       0.024367
     44 H14          5.0090     4.7010     0.0010 h1         1 WZO       0.024367
     45 H15          3.0380     1.1670     1.3990 h2         1 WZO       0.124700
     46 H16          4.7950    -1.9590     3.4790 hn         1 WZO       0.498500
     47 H17          4.8360    -3.6390     3.1930 hn         1 WZO       0.498500
     48 H18          4.7250    -4.3790     1.0460 hn         1 WZO       0.316500
     49 H19          1.5970    -3.1900    -2.7670 h1         1 WZO       0.092700
     50 H20          1.6200    -1.6700    -3.7050 h1         1 WZO       0.092700
     51 H21          3.1150    -2.6370    -3.5340 h1         1 WZO       0.092700
     52 C10          0.4650     3.2220    -1.2250 c3         1 WZO       0.229600
@<TRIPOS>BOND
     1     1    28 2   
     2     1    29 1   
     3     1    30 1   
     4     2    27 2   
     5     2    32 1   
     6     2    34 1   
     7     3     4 2   
     8     3    27 1   
     9     3    28 1   
    10     4     5 1   
    11     4    32 1   
    12     5    30 1   
    13     5    31 2   
    14     6     7 1   
    15     7     8 1   
    16     7     9 1   
    17     7    18 1   
    18     9    10 1   
    19    10    11 1   
    20    10    12 1   
    21    10    13 1   
    22    13    14 1   
    23    14    15 1   
    24    14    16 1   
    25    14    17 1   
    26    16    35 1   
    27    18    52 1   
    28    19    20 1   
    29    19    26 1   
    30    19    38 1   
    31    19    52 1   
    32    20    21 1   
    33    20    22 1   
    34    20    39 1   
    35    21    40 1   
    36    22    23 1   
    37    22    25 1   
    38    22    41 1   
    39    23    24 1   
    40    24    42 1   
    41    24    43 1   
    42    24    44 1   
    43    25    26 1   
    44    25    27 1   
    45    25    45 1   
    46    29    46 1   
    47    29    47 1   
    48    30    48 1   
    49    32    33 1   
    50    33    49 1   
    51    33    50 1   
    52    33    51 1   
    53    36    52 1   
    54    37    52 1   
@<TRIPOS>SUBSTRUCTURE
     1 WZO         1 TEMP              0 ****  ****    0 ROOT
