@<TRIPOS>MOLECULE
WZP
   36    36     1     0     0
SMALL
bcc


@<TRIPOS>ATOM
      1 C4          32.4320    58.7020    36.5160 c6         1 WZP       0.145800
      2 C5          31.4210    58.1250    34.3720 c3         1 WZP       0.188500
      3 C6          31.2890    56.6750    34.8310 c3         1 WZP      -0.091600
      4 C11         34.9020    62.5780    39.6910 c3         1 WZP      -0.082100
      5 C7          30.2580    58.4460    33.4360 c3         1 WZP      -0.091600
      6 C8          33.4040    61.8990    37.7930 c          1 WZP       0.677100
      7 C9          34.4000    61.4170    38.8410 c3         1 WZP      -0.135700
      8 C10         35.5650    60.7100    38.1410 c3         1 WZP      -0.082100
      9 N1          32.4980    61.0130    37.3190 n          1 WZP      -0.481800
     10 N2          31.4470    59.0510    35.5080 n3         1 WZP      -0.720600
     11 C3          32.3400    59.6290    37.7180 c6         1 WZP       0.096500
     12 C1          31.6630    60.4280    35.0980 c6         1 WZP       0.145800
     13 C2          31.5600    61.3800    36.2770 c6         1 WZP       0.096500
     14 O1          33.4550    63.0490    37.3730 o          1 WZP      -0.607100
     15 H8          32.2550    57.6920    36.8820 h1         1 WZP       0.039450
     16 H7          33.4600    58.7310    36.1150 h1         1 WZP       0.039450
     17 H9          32.3590    58.2100    33.7950 h1         1 WZP       0.019700
     18 H12         32.1750    56.3050    35.3440 hc         1 WZP       0.038533
     19 H10         30.4330    56.5570    35.4990 hc         1 WZP       0.038533
     20 H11         31.1320    56.0300    33.9670 hc         1 WZP       0.038533
     21 H21         35.5830    62.2020    40.4550 hc         1 WZP       0.040867
     22 H22         35.4430    63.3120    39.0940 hc         1 WZP       0.040867
     23 H20         34.0850    63.0910    40.1990 hc         1 WZP       0.040867
     24 H14         30.3520    59.4110    32.9410 hc         1 WZP       0.038533
     25 H15         30.1970    57.6940    32.6490 hc         1 WZP       0.038533
     26 H13         29.3150    58.4350    33.9850 hc         1 WZP       0.038533
     27 H16         33.9190    60.7060    39.5160 hc         1 WZP       0.053700
     28 H18         36.2910    60.3630    38.8760 hc         1 WZP       0.040867
     29 H19         35.2410    59.8450    37.5620 hc         1 WZP       0.040867
     30 H17         36.0770    61.3930    37.4620 hc         1 WZP       0.040867
     31 H6          31.3590    59.5050    38.1900 h1         1 WZP       0.058950
     32 H5          33.0890    59.3340    38.4460 h1         1 WZP       0.058950
     33 H1          32.6470    60.5570    34.6140 h1         1 WZP       0.039450
     34 H2          30.9080    60.7270    34.3730 h1         1 WZP       0.039450
     35 H4          31.7550    62.3970    35.9490 h1         1 WZP       0.058950
     36 H3          30.5440    61.3450    36.6830 h1         1 WZP       0.058950
@<TRIPOS>BOND
     1     1    10 1   
     2     1    11 1   
     3     1    15 1   
     4     1    16 1   
     5     2     3 1   
     6     2     5 1   
     7     2    10 1   
     8     2    17 1   
     9     3    18 1   
    10     3    19 1   
    11     3    20 1   
    12     4     7 1   
    13     4    21 1   
    14     4    22 1   
    15     4    23 1   
    16     5    24 1   
    17     5    25 1   
    18     5    26 1   
    19     6     7 1   
    20     6     9 1   
    21     6    14 2   
    22     7     8 1   
    23     7    27 1   
    24     8    28 1   
    25     8    29 1   
    26     8    30 1   
    27     9    11 1   
    28     9    13 1   
    29    10    12 1   
    30    11    31 1   
    31    11    32 1   
    32    12    13 1   
    33    12    33 1   
    34    12    34 1   
    35    13    35 1   
    36    13    36 1   
@<TRIPOS>SUBSTRUCTURE
     1 WZP         1 TEMP              0 ****  ****    0 ROOT
