@<TRIPOS>MOLECULE
WZP
   36    36     1     0     0
SMALL
No Charge or Current Charge


@<TRIPOS>ATOM
      1 C4          32.3860    58.6570    36.5580 c6         1 WZP       0.145800
      2 C5          31.3760    58.1090    34.3250 c3         1 WZP       0.188500
      3 C6          31.2400    56.6070    34.6880 c3         1 WZP      -0.091600
      4 C11         34.9510    62.7610    39.6060 c3         1 WZP      -0.082100
      5 C7          30.2910    58.4670    33.2760 c3         1 WZP      -0.091600
      6 C8          33.5700    61.8050    37.6560 c          1 WZP       0.610100
      7 C9          34.5150    61.4840    38.8450 c3         1 WZP      -0.135700
      8 C10         35.7390    60.6720    38.3560 c3         1 WZP      -0.082100
      9 N1          32.4150    61.0130    37.4510 n          1 WZP      -0.414800
     10 N2          31.3550    59.0080    35.5240 n3         1 WZP      -0.720600
     11 C3          32.3240    59.5710    37.8140 c6         1 WZP       0.096500
     12 C1          31.4650    60.4670    35.1840 c6         1 WZP       0.145800
     13 C2          31.3890    61.3790    36.4380 c6         1 WZP       0.096500
     14 O1          33.8110    62.7490    36.9130 o          1 WZP      -0.607100
     15 H8          32.2560    57.6240    36.9080 h1         1 WZP       0.039450
     16 H7          33.3940    58.7260    36.1230 h1         1 WZP       0.039450
     17 H9          32.3470    58.2220    33.8220 h1         1 WZP       0.019700
     18 H12         32.1190    56.2420    35.2300 hc         1 WZP       0.038533
     19 H10         30.3490    56.4350    35.3050 hc         1 WZP       0.038533
     20 H11         31.1520    55.9930    33.7830 hc         1 WZP       0.038533
     21 H21         35.5620    62.5020    40.4790 hc         1 WZP       0.040867
     22 H22         35.5420    63.4230    38.9610 hc         1 WZP       0.040867
     23 H20         34.0740    63.3170    39.9590 hc         1 WZP       0.040867
     24 H14         30.4910    59.4360    32.8060 hc         1 WZP       0.038533
     25 H15         30.2690    57.7250    32.4690 hc         1 WZP       0.038533
     26 H13         29.2980    58.4980    33.7390 hc         1 WZP       0.038533
     27 H16         33.9830    60.8430    39.5560 hc         1 WZP       0.053700
     28 H18         36.3800    60.3900    39.2000 hc         1 WZP       0.040867
     29 H19         35.4210    59.7530    37.8490 hc         1 WZP       0.040867
     30 H17         36.3390    61.2590    37.6510 hc         1 WZP       0.040867
     31 H6          31.3720    59.3970    38.3360 h1         1 WZP       0.058950
     32 H5          33.1240    59.2650    38.4980 h1         1 WZP       0.058950
     33 H1          32.4130    60.6640    34.6610 h1         1 WZP       0.039450
     34 H2          30.6530    60.7780    34.5130 h1         1 WZP       0.039450
     35 H4          31.4930    62.4290    36.1340 h1         1 WZP       0.058950
     36 H3          30.3930    61.2760    36.8920 h1         1 WZP       0.058950
@<TRIPOS>BOND
     1     1    10 1   
     2     1    11 1   
     3     1    15 1   
     4     1    16 1   
     5     2     3 1   
     6     2     5 1   
     7     2    10 1   
     8     2    17 1   
     9     3    18 1   
    10     3    19 1   
    11     3    20 1   
    12     4     7 1   
    13     4    21 1   
    14     4    22 1   
    15     4    23 1   
    16     5    24 1   
    17     5    25 1   
    18     5    26 1   
    19     6     7 1   
    20     6     9 1   
    21     6    14 2   
    22     7     8 1   
    23     7    27 1   
    24     8    28 1   
    25     8    29 1   
    26     8    30 1   
    27     9    11 1   
    28     9    13 1   
    29    10    12 1   
    30    11    31 1   
    31    11    32 1   
    32    12    13 1   
    33    12    33 1   
    34    12    34 1   
    35    13    35 1   
    36    13    36 1   
@<TRIPOS>SUBSTRUCTURE
     1 WZP         1 TEMP              0 ****  ****    0 ROOT
