@<TRIPOS>MOLECULE
WZQ
   61    64     1     0     0
SMALL
No Charge or Current Charge


@<TRIPOS>ATOM
      1 C10        -12.1850    10.7980    38.2510 c6         1 WZQ       0.159600
      2 C11        -11.8410    10.4280    36.7940 c6         1 WZQ      -0.111400
      3 C12        -11.4540    11.6990    36.0090 c6         1 WZQ      -0.028100
      4 C13         -7.8290    18.0050    35.9730 c3         1 WZQ       0.135800
      5 C14         -6.4290    18.2080    36.6090 c3         1 WZQ       0.060000
      6 C16         -6.0040    20.6710    36.2550 c          1 WZQ       0.591100
      7 C18         -5.1130    21.6730    35.5100 c3         1 WZQ      -0.159400
      8 C19         -5.7850    22.2450    34.2350 c3         1 WZQ      -0.078400
      9 C20         -7.0350    23.1170    34.5050 c3         1 WZQ      -0.079400
     10 C21         -7.6000    23.8710    33.2720 c3         1 WZQ      -0.057400
     11 C22         -8.1910    22.9880    32.1360 c5         1 WZQ       0.078300
     12 C23         -9.2060    23.7120    31.1750 c5         1 WZQ       0.097700
     13 C25         -8.3330    24.9820    29.3970 c          1 WZQ       0.608000
     14 C03         -8.8760    14.3910    36.9640 ca         1 WZQ       0.306300
     15 C04         -9.7540    13.5990    36.1950 ca         1 WZQ      -0.107000
     16 C05        -10.5070    12.5860    36.8180 ca         1 WZQ      -0.121300
     17 C06        -10.3580    12.4150    38.2120 ca         1 WZQ       0.088100
     18 C07         -9.4490    13.2470    38.9050 ca         1 WZQ       0.314900
     19 C28         -9.2920    22.8790    29.8300 c5         1 WZQ       0.102700
     20 C29         -8.2280    21.7320    29.8870 c5         1 WZQ       0.036600
     21 N01         -8.5680    16.8710    36.5810 n7         1 WZQ      -0.864400
     22 N08         -8.7200    14.2210    38.3030 nb         1 WZQ      -0.646000
     23 N15         -5.7020    19.3460    36.0300 ns         1 WZQ      -0.506900
     24 N24         -8.5740    24.9600    30.7270 ns         1 WZQ      -0.513900
     25 N27         -8.7690    23.8280    28.8430 ns         1 WZQ      -0.519900
     26 O09        -11.0610    11.4370    38.8950 os         1 WZQ      -0.343100
     27 O17         -6.8920    21.0150    37.0210 o          1 WZQ      -0.618100
     28 O26         -7.8210    25.9030    28.7910 o          1 WZQ      -0.576000
     29 S30         -6.8780    22.3150    31.0120 ss         1 WZQ      -0.436000
     30 H102       -12.4630     9.9000    38.8220 h1         1 WZQ       0.058700
     31 H101       -13.0410    11.4880    38.2650 h1         1 WZQ       0.058700
     32 H112       -11.0060     9.7140    36.7870 hc         1 WZQ       0.059700
     33 H111       -12.6930     9.9280    36.3140 hc         1 WZQ       0.059700
     34 H121       -12.3600    12.2710    35.7650 hc         1 WZQ       0.057700
     35 H122       -10.9940    11.4200    35.0510 hc         1 WZQ       0.057700
     36 H131        -7.7120    17.8510    34.8910 h1         1 WZQ       0.052200
     37 H132        -8.4060    18.9300    36.1050 h1         1 WZQ       0.052200
     38 H141        -6.5370    18.3720    37.6900 h1         1 WZQ       0.059700
     39 H142        -5.8220    17.3060    36.4630 h1         1 WZQ       0.059700
     40 H182        -4.1910    21.1730    35.1920 hc         1 WZQ       0.072700
     41 H181        -4.8700    22.5040    36.1830 hc         1 WZQ       0.072700
     42 H192        -6.0560    21.4080    33.5810 hc         1 WZQ       0.050200
     43 H191        -5.0450    22.8460    33.6910 hc         1 WZQ       0.050200
     44 H201        -6.7830    23.8610    35.2710 hc         1 WZQ       0.047700
     45 H202        -7.8320    22.4930    34.9290 hc         1 WZQ       0.047700
     46 H212        -6.8240    24.5330    32.8710 hc         1 WZQ       0.056200
     47 H211        -8.3940    24.5310    33.6440 hc         1 WZQ       0.056200
     48 H221        -8.7040    22.1370    32.6050 h1         1 WZQ       0.070700
     49 H231       -10.1870    23.8810    31.6390 h1         1 WZQ       0.065700
     50 H022        -8.0130    15.3260    35.2210 h1         1 WZQ       0.038700
     51 H021        -7.0100    15.4100    36.6680 h1         1 WZQ       0.038700
     52 H041        -9.8430    13.7720    35.1250 ha         1 WZQ       0.119000
     53 H071        -9.3050    13.1300    39.9780 h4         1 WZQ       0.034100
     54 H281       -10.3040    22.5220    29.5940 h1         1 WZQ       0.074700
     55 H292        -8.6710    20.8240    30.3170 h1         1 WZQ       0.079700
     56 H291        -7.8310    21.4700    28.8970 h1         1 WZQ       0.079700
     57 H011        -8.6020    17.0010    37.6020 hn         1 WZQ       0.429000
     58 H151        -4.9390    19.1570    35.3890 hn         1 WZQ       0.328500
     59 H241        -8.3100    25.7540    31.2960 hn         1 WZQ       0.339500
     60 H271        -8.6600    23.6800    27.8470 hn         1 WZQ       0.342500
     61 C02         -8.0430    15.5040    36.3050 c3         1 WZQ       0.118500
@<TRIPOS>BOND
     1     1     2 1   
     2     1    26 1   
     3     1    30 1   
     4     1    31 1   
     5     2     3 1   
     6     2    32 1   
     7     2    33 1   
     8     3    16 1   
     9     3    34 1   
    10     3    35 1   
    11     4     5 1   
    12     4    21 1   
    13     4    36 1   
    14     4    37 1   
    15     5    23 1   
    16     5    38 1   
    17     5    39 1   
    18     6     7 1   
    19     6    23 1   
    20     6    27 2   
    21     7     8 1   
    22     7    40 1   
    23     7    41 1   
    24     8     9 1   
    25     8    42 1   
    26     8    43 1   
    27     9    10 1   
    28     9    44 1   
    29     9    45 1   
    30    10    11 1   
    31    10    46 1   
    32    10    47 1   
    33    11    12 1   
    34    11    29 1   
    35    11    48 1   
    36    12    19 1   
    37    12    24 1   
    38    12    49 1   
    39    13    24 1   
    40    13    25 1   
    41    13    28 2   
    42    14    15 ar  
    43    14    22 ar  
    44    14    61 1   
    45    15    16 ar  
    46    15    52 1   
    47    16    17 ar  
    48    17    18 ar  
    49    17    26 1   
    50    18    22 ar  
    51    18    53 1   
    52    19    20 1   
    53    19    25 1   
    54    19    54 1   
    55    20    29 1   
    56    20    55 1   
    57    20    56 1   
    58    21    57 1   
    59    21    61 1   
    60    23    58 1   
    61    24    59 1   
    62    25    60 1   
    63    50    61 1   
    64    51    61 1   
@<TRIPOS>SUBSTRUCTURE
     1 WZQ         1 TEMP              0 ****  ****    0 ROOT
