@<TRIPOS>MOLECULE
WZQ
   61    64     1     0     0
SMALL
abcg2


@<TRIPOS>ATOM
      1 C10        -12.1180    11.7400    36.8270 c6         1 WZQ       0.159600
      2 C11        -12.5190    12.1880    35.4350 c6         1 WZQ      -0.111400
      3 C12        -12.2770    13.6890    35.2920 c6         1 WZQ      -0.028100
      4 C13         -7.9070    19.1090    36.3970 c3         1 WZQ       0.135800
      5 C14         -6.3720    19.1310    36.4650 c3         1 WZQ       0.060000
      6 C16         -5.6160    21.4410    36.9130 c          1 WZQ       0.591100
      7 C18         -5.1370    22.7520    36.3030 c3         1 WZQ      -0.159400
      8 C19         -5.6180    23.0680    34.8870 c3         1 WZQ      -0.078400
      9 C20         -7.1390    23.2520    34.7980 c3         1 WZQ      -0.079400
     10 C21         -7.7330    23.0680    33.3970 c3         1 WZQ      -0.057400
     11 C22         -7.9790    21.6130    33.0150 c5         1 WZQ       0.078300
     12 C23         -8.8820    21.4130    31.7870 c5         1 WZQ       0.097700
     13 C25         -8.2660    21.4850    29.5160 c          1 WZQ       0.608000
     14 C03         -8.9990    15.5260    35.9610 ca         1 WZQ       0.306300
     15 C04        -10.2680    15.2390    35.4730 ca         1 WZQ      -0.107000
     16 C05        -10.9150    14.0560    35.8180 ca         1 WZQ      -0.121300
     17 C06        -10.2310    13.1910    36.6760 ca         1 WZQ       0.088100
     18 C07         -8.9600    13.5480    37.1250 ca         1 WZQ       0.314900
     19 C28         -8.6930    19.9550    31.2550 c5         1 WZQ       0.102700
     20 C29         -7.5440    19.2840    32.0260 c5         1 WZQ       0.036600
     21 N01         -8.5270    17.8170    36.6670 n7         1 WZQ      -0.864400
     22 N08         -8.3550    14.6810    36.7790 nb         1 WZQ      -0.646000
     23 N15         -5.8370    20.4200    36.0640 ns         1 WZQ      -0.506900
     24 N24         -8.5000    22.2210    30.6430 ns         1 WZQ      -0.513900
     25 N27         -8.4120    20.1710    29.8480 ns         1 WZQ      -0.519900
     26 O09        -10.7200    11.9890    37.0840 os         1 WZQ      -0.343100
     27 O17         -5.7500    21.3270    38.1360 o          1 WZQ      -0.618100
     28 O26         -7.9830    21.9290    28.4040 o          1 WZQ      -0.576000
     29 S30         -6.4760    20.6280    32.6310 ss         1 WZQ      -0.436000
     30 H102       -12.2440    10.6680    36.9660 h1         1 WZQ       0.058700
     31 H101       -12.7050    12.2670    37.5860 h1         1 WZQ       0.058700
     32 H112       -11.9300    11.6360    34.6970 hc         1 WZQ       0.059700
     33 H111       -13.5690    11.9450    35.2690 hc         1 WZQ       0.059700
     34 H121       -13.0380    14.2400    35.8550 hc         1 WZQ       0.057700
     35 H122       -12.3670    14.0070    34.2510 hc         1 WZQ       0.057700
     36 H131        -8.2210    19.4300    35.4010 h1         1 WZQ       0.052200
     37 H132        -8.2960    19.8420    37.1090 h1         1 WZQ       0.052200
     38 H141        -6.0420    18.9160    37.4810 h1         1 WZQ       0.059700
     39 H142        -5.9500    18.3750    35.8020 h1         1 WZQ       0.059700
     40 H182        -4.0430    22.7280    36.3300 hc         1 WZQ       0.072700
     41 H181        -5.4470    23.5380    36.9950 hc         1 WZQ       0.072700
     42 H192        -5.2790    22.2900    34.2010 hc         1 WZQ       0.050200
     43 H191        -5.1250    23.9810    34.5470 hc         1 WZQ       0.050200
     44 H201        -7.3840    24.2530    35.1620 hc         1 WZQ       0.047700
     45 H202        -7.6390    22.5530    35.4750 hc         1 WZQ       0.047700
     46 H212        -7.1070    23.5550    32.6450 hc         1 WZQ       0.056200
     47 H211        -8.7070    23.5660    33.3620 hc         1 WZQ       0.056200
     48 H221        -8.4680    21.1110    33.8540 h1         1 WZQ       0.070700
     49 H231        -9.9180    21.6070    32.0740 h1         1 WZQ       0.065700
     50 H022        -8.6900    17.2140    34.6860 h1         1 WZQ       0.038700
     51 H021        -7.2320    16.5900    35.4630 h1         1 WZQ       0.038700
     52 H041       -10.7580    15.9380    34.8050 ha         1 WZQ       0.119000
     53 H071        -8.4250    12.8710    37.7840 h4         1 WZQ       0.034100
     54 H281        -9.6000    19.3630    31.3790 h1         1 WZQ       0.074700
     55 H292        -7.9360    18.7290    32.8780 h1         1 WZQ       0.079700
     56 H291        -6.9690    18.6070    31.3960 h1         1 WZQ       0.079700
     57 H011        -8.2020    17.4530    37.5580 hn         1 WZQ       0.429000
     58 H151        -5.7840    20.5830    35.0670 hn         1 WZQ       0.328500
     59 H241        -8.7250    23.1990    30.5720 hn         1 WZQ       0.339500
     60 H271        -8.0800    19.4420    29.2380 hn         1 WZQ       0.342500
     61 C02         -8.2960    16.8110    35.6220 c3         1 WZQ       0.118500
@<TRIPOS>BOND
     1     1     2 1   
     2     1    26 1   
     3     1    30 1   
     4     1    31 1   
     5     2     3 1   
     6     2    32 1   
     7     2    33 1   
     8     3    16 1   
     9     3    34 1   
    10     3    35 1   
    11     4     5 1   
    12     4    21 1   
    13     4    36 1   
    14     4    37 1   
    15     5    23 1   
    16     5    38 1   
    17     5    39 1   
    18     6     7 1   
    19     6    23 1   
    20     6    27 2   
    21     7     8 1   
    22     7    40 1   
    23     7    41 1   
    24     8     9 1   
    25     8    42 1   
    26     8    43 1   
    27     9    10 1   
    28     9    44 1   
    29     9    45 1   
    30    10    11 1   
    31    10    46 1   
    32    10    47 1   
    33    11    12 1   
    34    11    29 1   
    35    11    48 1   
    36    12    19 1   
    37    12    24 1   
    38    12    49 1   
    39    13    24 1   
    40    13    25 1   
    41    13    28 2   
    42    14    15 ar  
    43    14    22 ar  
    44    14    61 1   
    45    15    16 ar  
    46    15    52 1   
    47    16    17 ar  
    48    17    18 ar  
    49    17    26 1   
    50    18    22 ar  
    51    18    53 1   
    52    19    20 1   
    53    19    25 1   
    54    19    54 1   
    55    20    29 1   
    56    20    55 1   
    57    20    56 1   
    58    21    57 1   
    59    21    61 1   
    60    23    58 1   
    61    24    59 1   
    62    25    60 1   
    63    50    61 1   
    64    51    61 1   
@<TRIPOS>SUBSTRUCTURE
     1 WZQ         1 TEMP              0 ****  ****    0 ROOT
