@<TRIPOS>MOLECULE
WZR
   31    33     1     0     0
SMALL
No Charge or Current Charge


@<TRIPOS>ATOM
      1 C13         10.5230   -27.2130    -1.2390 ca         1 WZR      -0.077300
      2 C15         10.7860   -26.8330     1.1620 ca         1 WZR      -0.108500
      3 C17          8.6380   -26.4210     0.1000 ca         1 WZR      -0.108500
      4 C02         13.1980   -31.4290    -2.2880 ca         1 WZR       0.175100
      5 C03         11.7970   -31.4030    -2.3340 ca         1 WZR      -0.172000
      6 C04         11.1170   -30.1780    -2.4430 ca         1 WZR      -0.037000
      7 C05         11.8430   -28.9730    -2.5140 ca         1 WZR      -0.163300
      8 C06         13.2510   -29.0080    -2.4680 ca         1 WZR       0.036000
      9 C07         13.9280   -30.2330    -2.3510 ca         1 WZR      -0.258000
     10 N08         13.9700   -27.8010    -2.5210 ns         1 WZR      -0.145000
     11 C09         13.4560   -26.5460    -2.7630 c          1 WZR       0.572000
     12 O10         14.1230   -25.5290    -2.6250 o          1 WZR      -0.543000
     13 C11         11.9860   -26.5020    -3.1990 c6         1 WZR      -0.158400
     14 C12         11.1020   -27.6300    -2.5990 c6         1 WZR       0.051900
     15 C14         11.3250   -27.2210    -0.0770 ca         1 WZR      -0.104000
     16 C16          9.4430   -26.4320     1.2510 ca         1 WZR      -0.109000
     17 C18          9.1760   -26.8090    -1.1390 ca         1 WZR      -0.104000
     18 H1          11.4100   -26.8430     2.0530 ha         1 WZR       0.113000
     19 H2           7.5980   -26.1100     0.1670 ha         1 WZR       0.113000
     20 H3          14.8130   -32.4360    -2.1600 ho         1 WZR       0.467000
     21 H4          11.2360   -32.3320    -2.2800 ha         1 WZR       0.133000
     22 H5          10.0290   -30.1640    -2.4660 ha         1 WZR       0.115000
     23 H6          15.0140   -30.2480    -2.3110 ha         1 WZR       0.118000
     24 H7          14.9510   -27.8500    -2.2800 hn         1 WZR       0.158000
     25 H8          12.0160   -26.7000    -4.2780 hc         1 WZR       0.079200
     26 H9          11.5680   -25.4960    -3.0660 hc         1 WZR       0.079200
     27 H10         10.2570   -27.7700    -3.2900 hc         1 WZR       0.067700
     28 H11         12.3650   -27.5300    -0.1280 ha         1 WZR       0.113500
     29 H12          9.0260   -26.1320     2.2100 ha         1 WZR       0.113000
     30 H13          8.5410   -26.7930    -2.0230 ha         1 WZR       0.113500
     31 O01         13.8500   -32.6180    -2.1780 oh         1 WZR      -0.530100
@<TRIPOS>BOND
     1     1    14 1   
     2     1    15 ar  
     3     1    17 ar  
     4     2    15 ar  
     5     2    16 ar  
     6     2    18 1   
     7     3    16 ar  
     8     3    17 ar  
     9     3    19 1   
    10     4     5 ar  
    11     4     9 ar  
    12     4    31 1   
    13     5     6 ar  
    14     5    21 1   
    15     6     7 ar  
    16     6    22 1   
    17     7     8 ar  
    18     7    14 1   
    19     8     9 ar  
    20     8    10 1   
    21     9    23 1   
    22    10    11 1   
    23    10    24 1   
    24    11    12 2   
    25    11    13 1   
    26    13    14 1   
    27    13    25 1   
    28    13    26 1   
    29    14    27 1   
    30    15    28 1   
    31    16    29 1   
    32    17    30 1   
    33    20    31 1   
@<TRIPOS>SUBSTRUCTURE
     1 WZR         1 TEMP              0 ****  ****    0 ROOT
