@<TRIPOS>MOLECULE
WZR
   31    33     1     0     0
SMALL
abcg2


@<TRIPOS>ATOM
      1 C13         10.6840   -27.0920    -1.2020 ca         1 WZR      -0.077300
      2 C15         10.7770   -25.7940     0.8400 ca         1 WZR      -0.108500
      3 C17          9.1130   -27.4980     0.6000 ca         1 WZR      -0.108500
      4 C02         12.8040   -31.4480    -2.4940 ca         1 WZR       0.175100
      5 C03         11.4640   -31.2730    -2.8290 ca         1 WZR      -0.172000
      6 C04         10.9420   -29.9910    -2.8850 ca         1 WZR      -0.037000
      7 C05         11.7140   -28.8700    -2.6130 ca         1 WZR      -0.163300
      8 C06         13.0630   -29.0620    -2.3180 ca         1 WZR       0.036000
      9 C07         13.6080   -30.3400    -2.2480 ca         1 WZR      -0.258000
     10 N08         13.8760   -27.9520    -2.0950 ns         1 WZR      -0.145000
     11 C09         13.5850   -26.6880    -2.5050 c          1 WZR       0.572000
     12 O10         14.3780   -25.7740    -2.3710 o          1 WZR      -0.543000
     13 C11         12.2350   -26.5280    -3.1610 c6         1 WZR      -0.158400
     14 C12         11.1700   -27.4630    -2.5970 c6         1 WZR       0.051900
     15 C14         11.2600   -26.0850    -0.4330 ca         1 WZR      -0.104000
     16 C16          9.7050   -26.4980     1.3620 ca         1 WZR      -0.109000
     17 C18          9.5990   -27.7870    -0.6650 ca         1 WZR      -0.104000
     18 H1          11.2450   -25.0080     1.4190 ha         1 WZR       0.113000
     19 H2           8.2670   -28.0510     0.9890 ha         1 WZR       0.113000
     20 H3          14.2100   -32.7100    -2.1930 ho         1 WZR       0.467000
     21 H4          10.8410   -32.1320    -3.0430 ha         1 WZR       0.133000
     22 H5           9.8980   -29.8600    -3.1470 ha         1 WZR       0.115000
     23 H6          14.6620   -30.4660    -2.0190 ha         1 WZR       0.118000
     24 H7          14.8070   -28.1080    -1.7330 hn         1 WZR       0.158000
     25 H8          12.3700   -26.7590    -4.2230 hc         1 WZR       0.079200
     26 H9          11.9370   -25.4810    -3.1070 hc         1 WZR       0.079200
     27 H10         10.3040   -27.4220    -3.2630 hc         1 WZR       0.067700
     28 H11         12.0880   -25.4990    -0.8080 ha         1 WZR       0.113500
     29 H12          9.3290   -26.2690     2.3510 ha         1 WZR       0.113000
     30 H13          9.1220   -28.5660    -1.2480 ha         1 WZR       0.113500
     31 O01         13.2780   -32.7080    -2.4380 oh         1 WZR      -0.530100
@<TRIPOS>BOND
     1     1    14 1   
     2     1    15 ar  
     3     1    17 ar  
     4     2    15 ar  
     5     2    16 ar  
     6     2    18 1   
     7     3    16 ar  
     8     3    17 ar  
     9     3    19 1   
    10     4     5 ar  
    11     4     9 ar  
    12     4    31 1   
    13     5     6 ar  
    14     5    21 1   
    15     6     7 ar  
    16     6    22 1   
    17     7     8 ar  
    18     7    14 1   
    19     8     9 ar  
    20     8    10 1   
    21     9    23 1   
    22    10    11 1   
    23    10    24 1   
    24    11    12 2   
    25    11    13 1   
    26    13    14 1   
    27    13    25 1   
    28    13    26 1   
    29    14    27 1   
    30    15    28 1   
    31    16    29 1   
    32    17    30 1   
    33    20    31 1   
@<TRIPOS>SUBSTRUCTURE
     1 WZR         1 TEMP              0 ****  ****    0 ROOT
