@<TRIPOS>MOLECULE
WZU
   49    52     1     0     0
SMALL
abcg2


@<TRIPOS>ATOM
      1 C10         34.4370    25.1580    -5.6000 ca         1 WZU       0.331500
      2 C13         36.4120    26.7930    -6.5060 ca         1 WZU      -0.207000
      3 C17         36.8120    22.4230    -7.7980 cc         1 WZU      -0.223000
      4 C21         37.0490    20.0030    -8.7720 c5         1 WZU      -0.006400
      5 C22         36.6500    19.3180    -7.4490 c5         1 WZU      -0.068400
      6 C24         34.9100    18.7710    -9.0090 c5         1 WZU       0.190300
      7 C02         32.7430    18.9870    -8.0220 c          1 WZU       0.636100
      8 N03         31.8110    19.8430    -7.5530 ns         1 WZU      -0.504900
      9 C04         31.7710    21.2950    -7.6880 c3         1 WZU       0.112000
     10 C05         31.3290    21.9490    -6.3810 c3         1 WZU      -0.118400
     11 C06         32.4190    21.9650    -5.3070 c3         1 WZU       0.107000
     12 N07         33.4370    22.9690    -5.5660 ns         1 WZU      -0.490900
     13 C08         33.3380    24.2360    -5.1330 c          1 WZU       0.498600
     14 O09         32.4280    24.6420    -4.4050 o          1 WZU      -0.613100
     15 C11         34.4280    26.4790    -5.1980 ca         1 WZU      -0.154000
     16 C12         35.4500    27.3090    -5.6710 ca         1 WZU      -0.043000
     17 C14         36.3410    25.4260    -6.8590 ca         1 WZU       0.628900
     18 N15         37.3070    24.9160    -7.6890 nu         1 WZU      -0.901800
     19 C16         37.4280    23.6310    -8.1960 cc         1 WZU       0.513900
     20 C18         37.3460    21.4580    -8.6360 cd         1 WZU      -0.109300
     21 N19         38.2140    22.1020    -9.4420 na         1 WZU      -0.016200
     22 N20         38.2850    23.4360    -9.2000 nd         1 WZU      -0.580800
     23 C23         35.7480    18.1640    -7.8880 c5         1 WZU      -0.102400
     24 C25         35.8670    19.7040    -9.7530 c5         1 WZU      -0.081400
     25 O26         33.8510    19.6110    -8.4640 os         1 WZU      -0.464100
     26 N27         35.3700    24.6330    -6.4100 nb         1 WZU      -0.743000
     27 H1          37.2140    27.4090    -6.8920 ha         1 WZU       0.125000
     28 H3          37.9440    19.5140    -9.1630 hc         1 WZU       0.051700
     29 H4          37.5200    18.9950    -6.8780 hc         1 WZU       0.057700
     30 H5          36.0800    20.0070    -6.8240 hc         1 WZU       0.057700
     31 H6          34.4440    18.0270    -9.6510 h1         1 WZU       0.076700
     32 H7          30.9540    19.3920    -7.2690 hn         1 WZU       0.324500
     33 H8          32.7600    21.6400    -7.9820 h1         1 WZU       0.054700
     34 H9          31.0780    21.5670    -8.4890 h1         1 WZU       0.054700
     35 H10         31.0140    22.9760    -6.5810 hc         1 WZU       0.059700
     36 H11         30.4530    21.4180    -5.9970 hc         1 WZU       0.059700
     37 H12         31.9830    22.1800    -4.3340 h1         1 WZU       0.063700
     38 H13         32.9090    20.9910    -5.2500 h1         1 WZU       0.063700
     39 H14         34.1960    22.7740    -6.2000 hn         1 WZU       0.341500
     40 H15         33.6500    26.8440    -4.5450 ha         1 WZU       0.151000
     41 H16         35.4840    28.3530    -5.3860 ha         1 WZU       0.124000
     42 H17         37.9690    25.5800    -8.0620 hn         1 WZU       0.511000
     43 H18         38.7770    21.7000   -10.1750 hn         1 WZU       0.371000
     44 H19         35.1380    17.7490    -7.0880 hc         1 WZU       0.065200
     45 H20         36.3470    17.3530    -8.3130 hc         1 WZU       0.065200
     46 H21         36.2370    19.2140   -10.6530 hc         1 WZU       0.064700
     47 H22         35.3500    20.6120   -10.0590 hc         1 WZU       0.064700
     48 H2          36.1000    22.2790    -7.0130 ha         1 WZU       0.157000
     49 O01         32.5970    17.7700    -8.0320 o          1 WZU      -0.554000
@<TRIPOS>BOND
     1     1    13 1   
     2     1    15 ar  
     3     1    26 ar  
     4     2    16 ar  
     5     2    17 ar  
     6     2    27 1   
     7     3    19 1   
     8     3    20 2   
     9     3    48 1   
    10     4     5 1   
    11     4    20 1   
    12     4    24 1   
    13     4    28 1   
    14     5    23 1   
    15     5    29 1   
    16     5    30 1   
    17     6    23 1   
    18     6    24 1   
    19     6    25 1   
    20     6    31 1   
    21     7     8 1   
    22     7    25 1   
    23     7    49 2   
    24     8     9 1   
    25     8    32 1   
    26     9    10 1   
    27     9    33 1   
    28     9    34 1   
    29    10    11 1   
    30    10    35 1   
    31    10    36 1   
    32    11    12 1   
    33    11    37 1   
    34    11    38 1   
    35    12    13 1   
    36    12    39 1   
    37    13    14 2   
    38    15    16 ar  
    39    15    40 1   
    40    16    41 1   
    41    17    18 1   
    42    17    26 ar  
    43    18    19 1   
    44    18    42 1   
    45    19    22 2   
    46    20    21 1   
    47    21    22 1   
    48    21    43 1   
    49    23    44 1   
    50    23    45 1   
    51    24    46 1   
    52    24    47 1   
@<TRIPOS>SUBSTRUCTURE
     1 WZU         1 TEMP              0 ****  ****    0 ROOT
