@<TRIPOS>MOLECULE
WZU
   49    52     1     0     0
SMALL
No Charge or Current Charge


@<TRIPOS>ATOM
      1 C10         34.4600    25.0730    -5.7690 ca         1 WZU       0.331500
      2 C13         36.3780    26.7830    -6.7790 ca         1 WZU      -0.207000
      3 C17         36.8600    22.4980    -8.1870 cc         1 WZU      -0.223000
      4 C21         37.0010    20.0610    -8.8290 c5         1 WZU      -0.006400
      5 C22         36.4630    19.5430    -7.4670 c5         1 WZU      -0.068400
      6 C24         34.7600    19.0170    -9.0940 c5         1 WZU       0.190300
      7 C02         32.5940    19.0030    -8.1000 c          1 WZU       0.636100
      8 N03         31.5770    19.7690    -7.5860 ns         1 WZU      -0.504900
      9 C04         31.5250    21.2340    -7.4790 c3         1 WZU       0.112000
     10 C05         31.3520    21.6930    -6.0160 c3         1 WZU      -0.118400
     11 C06         32.6570    21.6850    -5.1890 c3         1 WZU       0.107000
     12 N07         33.5630    22.7770    -5.5590 ns         1 WZU      -0.490900
     13 C08         33.3940    24.1100    -5.2180 c          1 WZU       0.498600
     14 O09         32.4500    24.4740    -4.5220 o          1 WZU      -0.613100
     15 C11         34.3560    26.4590    -5.5180 ca         1 WZU      -0.154000
     16 C12         35.3270    27.3330    -6.0290 ca         1 WZU      -0.043000
     17 C14         36.4130    25.3990    -6.9890 ca         1 WZU       0.628900
     18 N15         37.4450    24.8280    -7.6960 nu         1 WZU      -0.901800
     19 C16         37.7450    23.5800    -8.1340 cc         1 WZU       0.513900
     20 C18         37.5850    21.4560    -8.6740 cd         1 WZU      -0.109300
     21 N19         38.8670    21.9680    -8.9080 na         1 WZU      -0.016200
     22 N20         38.9540    23.3260    -8.5680 nd         1 WZU      -0.580800
     23 C23         35.6000    18.3560    -7.9550 c5         1 WZU      -0.102400
     24 C25         35.7250    20.0680    -9.7370 c5         1 WZU      -0.081400
     25 O26         33.6610    19.7630    -8.5020 os         1 WZU      -0.464100
     26 N27         35.4940    24.5620    -6.4980 nb         1 WZU      -0.743000
     27 H1          37.1520    27.4230    -7.1900 ha         1 WZU       0.125000
     28 H3          37.7470    19.3630    -9.2300 hc         1 WZU       0.051700
     29 H4          37.2680    19.2280    -6.7930 hc         1 WZU       0.057700
     30 H5          35.8570    20.2840    -6.9320 hc         1 WZU       0.057700
     31 H6          34.3780    18.2970    -9.8330 h1         1 WZU       0.076700
     32 H7          30.7650    19.2460    -7.2830 hn         1 WZU       0.324500
     33 H8          32.4130    21.7060    -7.9190 h1         1 WZU       0.054700
     34 H9          30.6560    21.5740    -8.0570 h1         1 WZU       0.054700
     35 H10         30.9310    22.7050    -6.0100 hc         1 WZU       0.059700
     36 H11         30.6110    21.0510    -5.5250 hc         1 WZU       0.059700
     37 H12         32.4080    21.7870    -4.1240 h1         1 WZU       0.063700
     38 H13         33.1750    20.7260    -5.3200 h1         1 WZU       0.063700
     39 H14         34.3810    22.5750    -6.1240 hn         1 WZU       0.341500
     40 H15         33.5250    26.8480    -4.9340 ha         1 WZU       0.151000
     41 H16         35.2680    28.4050    -5.8480 ha         1 WZU       0.124000
     42 H17         38.2020    25.4710    -7.8870 hn         1 WZU       0.511000
     43 H18         39.6660    21.4510    -9.2760 hn         1 WZU       0.371000
     44 H19         34.9890    17.9310    -7.1520 hc         1 WZU       0.065200
     45 H20         36.2220    17.5420    -8.3460 hc         1 WZU       0.065200
     46 H21         35.9820    19.7930   -10.7660 hc         1 WZU       0.064700
     47 H22         35.2500    21.0540    -9.7970 hc         1 WZU       0.064700
     48 H2          35.8190    22.5000    -7.8980 ha         1 WZU       0.157000
     49 O01         32.5060    17.7890    -8.1850 o          1 WZU      -0.554000
@<TRIPOS>BOND
     1     1    13 1   
     2     1    15 ar  
     3     1    26 ar  
     4     2    16 ar  
     5     2    17 ar  
     6     2    27 1   
     7     3    19 1   
     8     3    20 2   
     9     3    48 1   
    10     4     5 1   
    11     4    20 1   
    12     4    24 1   
    13     4    28 1   
    14     5    23 1   
    15     5    29 1   
    16     5    30 1   
    17     6    23 1   
    18     6    24 1   
    19     6    25 1   
    20     6    31 1   
    21     7     8 1   
    22     7    25 1   
    23     7    49 2   
    24     8     9 1   
    25     8    32 1   
    26     9    10 1   
    27     9    33 1   
    28     9    34 1   
    29    10    11 1   
    30    10    35 1   
    31    10    36 1   
    32    11    12 1   
    33    11    37 1   
    34    11    38 1   
    35    12    13 1   
    36    12    39 1   
    37    13    14 2   
    38    15    16 ar  
    39    15    40 1   
    40    16    41 1   
    41    17    18 1   
    42    17    26 ar  
    43    18    19 1   
    44    18    42 1   
    45    19    22 2   
    46    20    21 1   
    47    21    22 1   
    48    21    43 1   
    49    23    44 1   
    50    23    45 1   
    51    24    46 1   
    52    24    47 1   
@<TRIPOS>SUBSTRUCTURE
     1 WZU         1 TEMP              0 ****  ****    0 ROOT
