@<TRIPOS>MOLECULE
WZV
   51    53     1     0     0
SMALL
No Charge or Current Charge


@<TRIPOS>ATOM
      1 F30         -7.9780    -2.0130    -1.0940 f          1 WZV      -0.104667
      2 C28         -7.3770    -2.3150     0.0810 c3         1 WZV       0.312000
      3 F31         -8.0950    -1.7470     1.0780 f          1 WZV      -0.104667
      4 F29         -7.4320    -3.6570     0.2420 f          1 WZV      -0.104667
      5 C27         -5.9110    -1.8240     0.1000 c3         1 WZV       0.084600
      6 O26         -5.8860    -0.3900    -0.0750 os         1 WZV      -0.319100
      7 C18         -4.7010     0.3220    -0.0980 ca         1 WZV       0.105100
      8 C23         -3.4270    -0.2820     0.0440 ca         1 WZV       0.260900
      9 N22         -2.2660     0.4200     0.0210 nb         1 WZV      -0.648000
     10 C19         -4.7620     1.7130    -0.2720 ca         1 WZV      -0.112000
     11 C20         -3.5610     2.4460    -0.2970 ca         1 WZV      -0.064000
     12 C21         -2.3220     1.7770    -0.1480 ca         1 WZV       0.255500
     13 C24         -1.0220     2.5840    -0.1770 c          1 WZV       0.518600
     14 O25         -1.0100     3.8050    -0.3260 o          1 WZV      -0.587100
     15 N13          0.1290     1.8170    -0.0210 ns         1 WZV      -0.126000
     16 C7           1.5140     2.1440     0.0150 ca         1 WZV      -0.026000
     17 C12          2.4250     1.0840     0.1880 ca         1 WZV      -0.133000
     18 C8           2.0080     3.4590    -0.1130 ca         1 WZV      -0.132000
     19 C9           3.3900     3.6990    -0.0670 ca         1 WZV      -0.090000
     20 C10          4.2880     2.6360     0.1060 ca         1 WZV      -0.138000
     21 C11          3.8240     1.3080     0.2370 ca         1 WZV      -0.042300
     22 C1           4.8480     0.1500     0.4250 c6         1 WZV       0.222500
     23 C2           5.8160     0.1130    -0.7730 c6         1 WZV      -0.182400
     24 C3           6.6810    -1.1380    -0.7460 c          1 WZV       0.572000
     25 O16          7.8430    -1.0950    -1.1290 o          1 WZV      -0.529000
     26 C14          5.6220     0.3780     1.7600 c3         1 WZV      -0.095100
     27 N6           4.1850    -1.1640     0.5420 n2         1 WZV      -0.719900
     28 C5           4.7940    -2.2390     0.2460 c2         1 WZV       0.684800
     29 N15          4.1400    -3.4160     0.2970 nv         1 WZV      -1.020200
     30 N4           6.1060    -2.3070    -0.2290 n          1 WZV      -0.388300
     31 C17          6.9400    -3.5360    -0.1390 c3         1 WZV       0.082300
     32 H271        -5.4550    -2.1080     1.0570 h1         1 WZV       0.074700
     33 H272        -5.3600    -2.3240    -0.7070 h1         1 WZV       0.074700
     34 H23         -3.3190    -1.3560     0.1820 h4         1 WZV       0.025100
     35 H19         -5.7200     2.2130    -0.3840 ha         1 WZV       0.145000
     36 H20         -3.5880     3.5240    -0.4300 ha         1 WZV       0.156000
     37 H13         -0.0640     0.8290     0.0890 hn         1 WZV       0.179000
     38 H12          2.0290     0.0770     0.2850 ha         1 WZV       0.134000
     39 H8           1.3440     4.3070    -0.2470 ha         1 WZV       0.146000
     40 H9           3.7660     4.7150    -0.1650 ha         1 WZV       0.114000
     41 H10          5.3530     2.8530     0.1390 ha         1 WZV       0.111000
     42 H21C         5.1950     0.0300    -1.6740 hc         1 WZV       0.085700
     43 H22C         6.4430     1.0080    -0.8760 hc         1 WZV       0.085700
     44 H141         4.9300     0.4470     2.6080 hc         1 WZV       0.046033
     45 H142         6.3250    -0.4360     1.9760 hc         1 WZV       0.046033
     46 H143         6.2040     1.3060     1.7360 hc         1 WZV       0.046033
     47 H151         3.1450    -3.2720     0.4110 hn         1 WZV       0.472000
     48 H152         4.3870    -4.0500    -0.4500 hn         1 WZV       0.472000
     49 H171         6.5910    -4.1820     0.6760 h1         1 WZV       0.051033
     50 H172         6.8880    -4.0880    -1.0860 h1         1 WZV       0.051033
     51 H173         7.9870    -3.2780     0.0670 h1         1 WZV       0.051033
@<TRIPOS>BOND
     1     1     2 1   
     2     2     3 1   
     3     2     4 1   
     4     2     5 1   
     5     5     6 1   
     6     5    32 1   
     7     5    33 1   
     8     6     7 1   
     9     7     8 ar  
    10     7    10 ar  
    11     8     9 ar  
    12     8    34 1   
    13     9    12 ar  
    14    10    11 ar  
    15    10    35 1   
    16    11    12 ar  
    17    11    36 1   
    18    12    13 1   
    19    13    14 2   
    20    13    15 1   
    21    15    16 1   
    22    15    37 1   
    23    16    17 ar  
    24    16    18 ar  
    25    17    21 ar  
    26    17    38 1   
    27    18    19 ar  
    28    18    39 1   
    29    19    20 ar  
    30    19    40 1   
    31    20    21 ar  
    32    20    41 1   
    33    21    22 1   
    34    22    23 1   
    35    22    26 1   
    36    22    27 1   
    37    23    24 1   
    38    23    42 1   
    39    23    43 1   
    40    24    25 2   
    41    24    30 1   
    42    26    44 1   
    43    26    45 1   
    44    26    46 1   
    45    27    28 2   
    46    28    29 1   
    47    28    30 1   
    48    29    47 1   
    49    29    48 1   
    50    30    31 1   
    51    31    49 1   
    52    31    50 1   
    53    31    51 1   
@<TRIPOS>SUBSTRUCTURE
     1 WZV         1 TEMP              0 ****  ****    0 ROOT
