@<TRIPOS>MOLECULE
WZV
   51    53     1     0     0
SMALL
abcg2


@<TRIPOS>ATOM
      1 F30         -7.7830    -1.9100    -1.0250 f          1 WZV      -0.104667
      2 C28         -7.1300    -2.2210     0.0990 c3         1 WZV       0.312000
      3 F31         -7.8050    -1.6690     1.1110 f          1 WZV      -0.104667
      4 F29         -7.1890    -3.5480     0.2470 f          1 WZV      -0.104667
      5 C27         -5.6900    -1.7680     0.0630 c3         1 WZV       0.084600
      6 O26         -5.7230    -0.3700    -0.0930 os         1 WZV      -0.319100
      7 C18         -4.5620     0.3030    -0.1190 ca         1 WZV       0.105100
      8 C23         -3.3030    -0.2920    -0.0370 ca         1 WZV       0.260900
      9 N22         -2.1900     0.4220    -0.0570 nb         1 WZV      -0.648000
     10 C19         -4.6350     1.6880    -0.2340 ca         1 WZV      -0.112000
     11 C20         -3.4650     2.4180    -0.2530 ca         1 WZV      -0.064000
     12 C21         -2.2540     1.7400    -0.1590 ca         1 WZV       0.255500
     13 C24         -0.9680     2.5090    -0.1660 c          1 WZV       0.518600
     14 O25         -0.9670     3.7250    -0.2590 o          1 WZV      -0.587100
     15 N13          0.1270     1.7290    -0.0580 ns         1 WZV      -0.126000
     16 C7           1.4740     2.0950    -0.0070 ca         1 WZV      -0.026000
     17 C12          2.3890     1.0510     0.1690 ca         1 WZV      -0.133000
     18 C8           1.9380     3.4030    -0.1220 ca         1 WZV      -0.132000
     19 C9           3.3060     3.6350    -0.0540 ca         1 WZV      -0.090000
     20 C10          4.2090     2.6020     0.1230 ca         1 WZV      -0.138000
     21 C11          3.7520     1.2870     0.2360 ca         1 WZV      -0.042300
     22 C1           4.7430     0.1460     0.4220 c6         1 WZV       0.222500
     23 C2           5.7040     0.1260    -0.7700 c6         1 WZV      -0.182400
     24 C3           6.5890    -1.0890    -0.7480 c          1 WZV       0.572000
     25 O16          7.7200    -1.0940    -1.1920 o          1 WZV      -0.529000
     26 C14          5.5090     0.3600     1.7380 c3         1 WZV      -0.095100
     27 N6           4.0320    -1.1100     0.4770 n2         1 WZV      -0.719900
     28 C5           4.6760    -2.1740     0.2090 c2         1 WZV       0.684800
     29 N15          4.1020    -3.3980     0.3890 nv         1 WZV      -1.020200
     30 N4           6.0140    -2.2140    -0.2150 n          1 WZV      -0.388300
     31 C17          6.7800    -3.4510    -0.1520 c3         1 WZV       0.082300
     32 H271        -5.1990    -2.0650     0.9960 h1         1 WZV       0.074700
     33 H272        -5.1810    -2.2630    -0.7700 h1         1 WZV       0.074700
     34 H23         -3.1820    -1.3660     0.0440 h4         1 WZV       0.025100
     35 H19         -5.5980     2.1780    -0.3030 ha         1 WZV       0.145000
     36 H20         -3.4940     3.4940    -0.3380 ha         1 WZV       0.156000
     37 H13         -0.0680     0.7380     0.0130 hn         1 WZV       0.179000
     38 H12          2.0310     0.0330     0.2570 ha         1 WZV       0.134000
     39 H8           1.2610     4.2290    -0.2610 ha         1 WZV       0.146000
     40 H9           3.6680     4.6520    -0.1450 ha         1 WZV       0.114000
     41 H10          5.2670     2.8270     0.1710 ha         1 WZV       0.111000
     42 H21C         5.1280     0.0970    -1.7020 hc         1 WZV       0.085700
     43 H22C         6.3370     1.0120    -0.8120 hc         1 WZV       0.085700
     44 H141         4.8170     0.3540     2.5800 hc         1 WZV       0.046033
     45 H142         6.2470    -0.4270     1.9030 hc         1 WZV       0.046033
     46 H143         6.0400     1.3130     1.7440 hc         1 WZV       0.046033
     47 H151         3.1160    -3.3530     0.5900 hn         1 WZV       0.472000
     48 H152         4.3380    -4.1360    -0.2560 hn         1 WZV       0.472000
     49 H171         6.5340    -3.9900     0.7590 h1         1 WZV       0.051033
     50 H172         6.5840    -4.0940    -1.0110 h1         1 WZV       0.051033
     51 H173         7.8380    -3.2160    -0.1380 h1         1 WZV       0.051033
@<TRIPOS>BOND
     1     1     2 1   
     2     2     3 1   
     3     2     4 1   
     4     2     5 1   
     5     5     6 1   
     6     5    32 1   
     7     5    33 1   
     8     6     7 1   
     9     7     8 ar  
    10     7    10 ar  
    11     8     9 ar  
    12     8    34 1   
    13     9    12 ar  
    14    10    11 ar  
    15    10    35 1   
    16    11    12 ar  
    17    11    36 1   
    18    12    13 1   
    19    13    14 2   
    20    13    15 1   
    21    15    16 1   
    22    15    37 1   
    23    16    17 ar  
    24    16    18 ar  
    25    17    21 ar  
    26    17    38 1   
    27    18    19 ar  
    28    18    39 1   
    29    19    20 ar  
    30    19    40 1   
    31    20    21 ar  
    32    20    41 1   
    33    21    22 1   
    34    22    23 1   
    35    22    26 1   
    36    22    27 1   
    37    23    24 1   
    38    23    42 1   
    39    23    43 1   
    40    24    25 2   
    41    24    30 1   
    42    26    44 1   
    43    26    45 1   
    44    26    46 1   
    45    27    28 2   
    46    28    29 1   
    47    28    30 1   
    48    29    47 1   
    49    29    48 1   
    50    30    31 1   
    51    31    49 1   
    52    31    50 1   
    53    31    51 1   
@<TRIPOS>SUBSTRUCTURE
     1 WZV         1 TEMP              0 ****  ****    0 ROOT
