@<TRIPOS>MOLECULE
WZX
   31    32     1     0     0
SMALL
No Charge or Current Charge


@<TRIPOS>ATOM
      1 C13        -18.0950    22.5870     0.2410 ca         1 WZX      -0.123000
      2 C15        -20.4160    22.6690     0.9520 ca         1 WZX      -0.100000
      3 C17        -18.6440    23.2800     2.5320 ca         1 WZX       0.272000
      4 C01        -23.4330    26.4400     5.2890 c3         1 WZX      -0.098100
      5 C02        -22.0630    26.7060     4.6450 c3         1 WZX       0.166600
      6 O03        -21.2230    25.5770     4.9390 os         1 WZX      -0.452100
      7 C04        -19.9370    25.5850     4.4560 c          1 WZX       0.553100
      8 O05        -19.4640    26.4960     3.7840 o          1 WZX      -0.481000
      9 N07        -18.2160    23.7170     3.8240 nh         1 WZX      -0.788400
     10 C08        -16.7400    23.8340     4.1320 c6         1 WZX       0.123800
     11 C09        -15.7360    23.5660     2.9750 c          1 WZX       0.569000
     12 O10        -14.5220    23.6890     3.1070 o          1 WZX      -0.543000
     13 N11        -16.3090    23.1760     1.7850 ns         1 WZX      -0.139000
     14 C12        -17.6880    23.0140     1.5190 ca         1 WZX      -0.064000
     15 C14        -19.4590    22.4160    -0.0420 ca         1 WZX      -0.112000
     16 C16        -20.0120    23.0960     2.2300 ca         1 WZX      -0.136000
     17 H1         -17.3550    22.3870    -0.5310 ha         1 WZX       0.116000
     18 H2         -21.4730    22.5320     0.7350 ha         1 WZX       0.115000
     19 H3         -24.1130    27.2760     5.0910 hc         1 WZX       0.048033
     20 H4         -23.8820    25.5270     4.8790 hc         1 WZX       0.048033
     21 H5         -23.3340    26.3260     6.3750 hc         1 WZX       0.048033
     22 H6         -21.6370    27.6300     5.0570 h1         1 WZX       0.050200
     23 H7         -22.1870    26.8310     3.5600 h1         1 WZX       0.050200
     24 H8         -19.9220    23.5300     5.1040 h1         1 WZX       0.087200
     25 H9         -18.6430    24.5140     5.7760 h1         1 WZX       0.087200
     26 H10        -16.4700    23.1270     4.9290 h1         1 WZX       0.077200
     27 H11        -16.5100    24.8470     4.4900 h1         1 WZX       0.077200
     28 H12        -15.6750    22.9910     1.0190 hn         1 WZX       0.161000
     29 H13        -19.7730    22.0860    -1.0300 ha         1 WZX       0.118000
     30 H14        -20.7760    23.2740     2.9790 ha         1 WZX       0.114000
     31 C06        -19.1700    24.2860     4.8410 c3         1 WZX       0.155800
@<TRIPOS>BOND
     1     1    14 ar  
     2     1    15 ar  
     3     1    17 1   
     4     2    15 ar  
     5     2    16 ar  
     6     2    18 1   
     7     3     9 1   
     8     3    14 ar  
     9     3    16 ar  
    10     4     5 1   
    11     4    19 1   
    12     4    20 1   
    13     4    21 1   
    14     5     6 1   
    15     5    22 1   
    16     5    23 1   
    17     6     7 1   
    18     7     8 2   
    19     7    31 1   
    20     9    10 1   
    21     9    31 1   
    22    10    11 1   
    23    10    26 1   
    24    10    27 1   
    25    11    12 2   
    26    11    13 1   
    27    13    14 1   
    28    13    28 1   
    29    15    29 1   
    30    16    30 1   
    31    24    31 1   
    32    25    31 1   
@<TRIPOS>SUBSTRUCTURE
     1 WZX         1 TEMP              0 ****  ****    0 ROOT
