@<TRIPOS>MOLECULE
WZX
   31    32     1     0     0
SMALL
abcg2


@<TRIPOS>ATOM
      1 C13        -17.7780    22.4050     0.2730 ca         1 WZX      -0.123000
      2 C15        -20.1500    22.6160     0.5290 ca         1 WZX      -0.100000
      3 C17        -18.6930    23.2530     2.3530 ca         1 WZX       0.272000
      4 C01        -23.0850    26.6460     5.9660 c3         1 WZX      -0.098100
      5 C02        -21.9890    26.6910     4.9310 c3         1 WZX       0.166600
      6 O03        -21.2330    25.4730     5.0420 os         1 WZX      -0.452100
      7 C04        -20.1830    25.3150     4.2560 c          1 WZX       0.553100
      8 O05        -19.8120    26.1160     3.4380 o          1 WZX      -0.481000
      9 N07        -18.4200    23.6850     3.6390 nh         1 WZX      -0.788400
     10 C08        -17.1800    24.4070     3.8310 c6         1 WZX       0.123800
     11 C09        -16.0120    23.6590     3.2300 c          1 WZX       0.569000
     12 O10        -14.8850    23.7270     3.6840 o          1 WZX      -0.543000
     13 N11        -16.3180    22.9520     2.1210 ns         1 WZX      -0.139000
     14 C12        -17.5950    22.8810     1.5600 ca         1 WZX      -0.064000
     15 C14        -19.0580    22.2690    -0.2490 ca         1 WZX      -0.112000
     16 C16        -19.9710    23.1120     1.8150 ca         1 WZX      -0.136000
     17 H1         -16.9130    22.1250    -0.3170 ha         1 WZX       0.116000
     18 H2         -21.1540    22.5140     0.1390 ha         1 WZX       0.115000
     19 H3         -23.6750    27.5600     5.9010 hc         1 WZX       0.048033
     20 H4         -23.7570    25.8040     5.8040 hc         1 WZX       0.048033
     21 H5         -22.6810    26.5810     6.9760 hc         1 WZX       0.048033
     22 H6         -21.3300    27.5470     5.0940 h1         1 WZX       0.050200
     23 H7         -22.4030    26.7710     3.9240 h1         1 WZX       0.050200
     24 H8         -20.2290    23.1850     4.5420 h1         1 WZX       0.087200
     25 H9         -19.0930    24.0280     5.5560 h1         1 WZX       0.087200
     26 H10        -16.9960    24.5210     4.8990 h1         1 WZX       0.077200
     27 H11        -17.1990    25.4150     3.3940 h1         1 WZX       0.077200
     28 H12        -15.5570    22.4970     1.6330 hn         1 WZX       0.161000
     29 H13        -19.1930    21.8900    -1.2530 ha         1 WZX       0.118000
     30 H14        -20.8470    23.3740     2.3940 ha         1 WZX       0.114000
     31 C06        -19.4900    23.9910     4.5370 c3         1 WZX       0.155800
@<TRIPOS>BOND
     1     1    14 ar  
     2     1    15 ar  
     3     1    17 1   
     4     2    15 ar  
     5     2    16 ar  
     6     2    18 1   
     7     3     9 1   
     8     3    14 ar  
     9     3    16 ar  
    10     4     5 1   
    11     4    19 1   
    12     4    20 1   
    13     4    21 1   
    14     5     6 1   
    15     5    22 1   
    16     5    23 1   
    17     6     7 1   
    18     7     8 2   
    19     7    31 1   
    20     9    10 1   
    21     9    31 1   
    22    10    11 1   
    23    10    26 1   
    24    10    27 1   
    25    11    12 2   
    26    11    13 1   
    27    13    14 1   
    28    13    28 1   
    29    15    29 1   
    30    16    30 1   
    31    24    31 1   
    32    25    31 1   
@<TRIPOS>SUBSTRUCTURE
     1 WZX         1 TEMP              0 ****  ****    0 ROOT
