@<TRIPOS>MOLECULE
WZY
   25    25     1     0     0
SMALL
bcc


@<TRIPOS>ATOM
      1 N1          18.5400    60.1530   -10.2950 ns         1 WZY      -0.479100
      2 C4          20.4490    57.6250    -8.3200 ca         1 WZY      -0.161500
      3 C5          20.0170    58.3730    -9.4130 ca         1 WZY      -0.131500
      4 C6          19.0350    59.3460    -9.2620 ca         1 WZY       0.038600
      5 C7          21.2770    56.1780    -6.0520 c3         1 WZY       0.125700
      6 C8          18.7940    60.1020   -11.6280 c          1 WZY       0.669100
      7 C1          18.4970    59.5480    -7.9870 ca         1 WZY      -0.131500
      8 C2          18.9240    58.8090    -6.9030 ca         1 WZY      -0.161500
      9 C3          19.9100    57.8330    -7.0560 ca         1 WZY       0.114100
     10 C9          18.0270    61.1610   -12.4100 c3         1 WZY       0.070800
     11 N2          18.3230    61.1020   -13.8210 n8         1 WZY      -0.862800
     12 O1          20.2660    57.1570    -5.9440 os         1 WZY      -0.318900
     13 O2          19.5550    59.3110   -12.1510 o          1 WZY      -0.557100
     14 H8          17.8840    60.8610    -9.9990 hn         1 WZY       0.310500
     15 H3          21.2150    56.8810    -8.4900 ha         1 WZY       0.140500
     16 H4          20.4630    58.1790   -10.3750 ha         1 WZY       0.145500
     17 H7          21.4150    55.7620    -5.0570 h1         1 WZY       0.040033
     18 H5          20.9950    55.3700    -6.7330 h1         1 WZY       0.040033
     19 H6          22.2260    56.6040    -6.3900 h1         1 WZY       0.040033
     20 H1          17.7280    60.2970    -7.8390 ha         1 WZY       0.145500
     21 H2          18.4910    58.9860    -5.9270 ha         1 WZY       0.140500
     22 H10         18.2240    62.1350   -11.9380 h1         1 WZY       0.042200
     23 H9          16.9590    60.9740   -12.2660 h1         1 WZY       0.042200
     24 H12         17.7060    61.7360   -14.3100 hn         1 WZY       0.348800
     25 H13         19.2620    61.4370   -13.9920 hn         1 WZY       0.348800
@<TRIPOS>BOND
     1     1     4 1   
     2     1     6 1   
     3     1    14 1   
     4     2     3 ar  
     5     2     9 ar  
     6     2    15 1   
     7     3     4 ar  
     8     3    16 1   
     9     4     7 ar  
    10     5    12 1   
    11     5    17 1   
    12     5    18 1   
    13     5    19 1   
    14     6    10 1   
    15     6    13 2   
    16     7     8 ar  
    17     7    20 1   
    18     8     9 ar  
    19     8    21 1   
    20     9    12 1   
    21    10    11 1   
    22    10    22 1   
    23    10    23 1   
    24    11    24 1   
    25    11    25 1   
@<TRIPOS>SUBSTRUCTURE
     1 WZY         1 TEMP              0 ****  ****    0 ROOT
