@<TRIPOS>MOLECULE
WZY
   25    25     1     0     0
SMALL
No Charge or Current Charge


@<TRIPOS>ATOM
      1 N1          18.5480    60.1190   -10.3220 ns         1 WZY      -0.153000
      2 C4          20.4840    57.6030    -8.2780 ca         1 WZY      -0.143500
      3 C5          20.0540    58.3540    -9.3880 ca         1 WZY      -0.113500
      4 C6          19.0350    59.3230    -9.2460 ca         1 WZY      -0.054000
      5 C7          21.3090    56.0970    -5.9270 c3         1 WZY       0.148900
      6 C8          18.8980    60.2020   -11.6660 c          1 WZY       0.602100
      7 C1          18.4580    59.5210    -7.9780 ca         1 WZY      -0.113500
      8 C2          18.8870    58.7710    -6.8690 ca         1 WZY      -0.143500
      9 C3          19.8990    57.8100    -7.0100 ca         1 WZY       0.114100
     10 C9          18.0530    61.2520   -12.4670 c3         1 WZY       0.070800
     11 N2          18.0430    61.1490   -13.9710 n8         1 WZY      -0.973200
     12 O1          20.2810    57.1030    -5.8870 os         1 WZY      -0.342100
     13 O2          19.7840    59.5330   -12.1920 o          1 WZY      -0.557100
     14 H8          17.8000    60.7470   -10.0540 hn         1 WZY       0.144000
     15 H3          21.2690    56.8660    -8.4220 ha         1 WZY       0.122500
     16 H4          20.5260    58.1630   -10.3460 ha         1 WZY       0.127500
     17 H7          21.4530    55.6620    -4.9300 h1         1 WZY       0.040033
     18 H5          21.0350    55.2870    -6.6140 h1         1 WZY       0.040033
     19 H6          22.2650    56.5280    -6.2510 h1         1 WZY       0.040033
     20 H1          17.6710    60.2620    -7.8470 ha         1 WZY       0.127500
     21 H2          18.4330    58.9360    -5.8960 ha         1 WZY       0.122500
     22 H10         18.4260    62.2460   -12.1860 h1         1 WZY       0.042200
     23 H9          17.0140    61.1810   -12.1140 h1         1 WZY       0.042200
     24 H12         17.5550    61.9620   -14.3710 hn         1 WZY       0.404000
     25 H13         19.0050    61.2430   -14.3260 hn         1 WZY       0.404000
@<TRIPOS>BOND
     1     1     4 1   
     2     1     6 1   
     3     1    14 1   
     4     2     3 ar  
     5     2     9 ar  
     6     2    15 1   
     7     3     4 ar  
     8     3    16 1   
     9     4     7 ar  
    10     5    12 1   
    11     5    17 1   
    12     5    18 1   
    13     5    19 1   
    14     6    10 1   
    15     6    13 2   
    16     7     8 ar  
    17     7    20 1   
    18     8     9 ar  
    19     8    21 1   
    20     9    12 1   
    21    10    11 1   
    22    10    22 1   
    23    10    23 1   
    24    11    24 1   
    25    11    25 1   
@<TRIPOS>SUBSTRUCTURE
     1 WZY         1 TEMP              0 ****  ****    0 ROOT
