@<TRIPOS>MOLECULE
WZZ
   47    49     1     0     0
SMALL
abcg2


@<TRIPOS>ATOM
      1 C10         37.1770    19.1770    -7.8080 c5         1 WZZ      -0.070400
      2 C13         37.4680    21.4260    -8.9610 cc         1 WZZ      -0.115300
      3 C15         37.5270    23.5880    -8.4690 cd         1 WZZ       0.512900
      4 C17         36.3640    25.3770    -7.1740 ca         1 WZZ       0.627900
      5 C20         34.4590    26.3980    -5.4870 ca         1 WZZ      -0.218000
      6 C21         35.4230    27.2590    -6.0230 ca         1 WZZ      -0.032000
      7 C22         36.3830    26.7560    -6.8720 ca         1 WZZ      -0.226000
      8 C01         32.3130    21.9990    -7.3850 c3         1 WZZ      -0.108600
      9 C02         32.9150    21.1260    -6.2850 c3         1 WZZ       0.127700
     10 C03         32.3940    21.5090    -4.9050 c3         1 WZZ      -0.108600
     11 N04         32.6310    19.7040    -6.5040 ns         1 WZZ      -0.504900
     12 C05         33.2550    18.8800    -7.3690 c          1 WZZ       0.637100
     13 O06         32.9470    17.7070    -7.5450 o          1 WZZ      -0.558000
     14 C08         35.0960    18.6880    -8.8880 c5         1 WZZ       0.186300
     15 C09         36.2030    18.0270    -8.0720 c5         1 WZZ      -0.102400
     16 C11         37.2000    19.9710    -9.1390 c5         1 WZZ      -0.003400
     17 C12         35.8280    19.6560    -9.8170 c5         1 WZZ      -0.075400
     18 C14         36.7900    22.4030    -8.2450 cd         1 WZZ      -0.217000
     19 N16         37.3290    24.8840    -8.0190 nu         1 WZZ      -0.901800
     20 N18         35.4470    24.5490    -6.6690 nb         1 WZZ      -0.732000
     21 C19         34.5230    25.0640    -5.8450 ca         1 WZZ       0.375900
     22 N24         38.5820    23.3690    -9.2600 nc         1 WZZ      -0.588800
     23 N23         38.5140    22.0450    -9.5420 na         1 WZZ      -0.015200
     24 H1          38.1720    18.8430    -7.5160 hc         1 WZZ       0.056700
     25 H2          36.7900    19.8110    -7.0080 hc         1 WZZ       0.056700
     26 H3          33.6890    26.7540    -4.8170 ha         1 WZZ       0.124000
     27 H4          35.4180    28.3130    -5.7760 ha         1 WZZ       0.117000
     28 H5          37.1430    27.3940    -7.3050 ha         1 WZZ       0.122000
     29 H6          32.5710    23.0470    -7.2190 hc         1 WZZ       0.043200
     30 H7          32.6920    21.7040    -8.3640 hc         1 WZZ       0.043200
     31 H8          31.2240    21.9080    -7.3890 hc         1 WZZ       0.043200
     32 H9          33.9990    21.2420    -6.2990 h1         1 WZZ       0.074700
     33 H10         32.8690    20.9090    -4.1270 hc         1 WZZ       0.043200
     34 H11         32.5970    22.5600    -4.7030 hc         1 WZZ       0.043200
     35 H12         31.3120    21.3580    -4.8480 hc         1 WZZ       0.043200
     36 H13         31.8160    19.3110    -6.0590 hn         1 WZZ       0.326500
     37 H14         34.4560    17.9840    -9.4110 h1         1 WZZ       0.079700
     38 H15         35.8260    17.5510    -7.1680 hc         1 WZZ       0.061200
     39 H16         36.6750    17.2580    -8.6900 hc         1 WZZ       0.061200
     40 H17         37.9950    19.5660    -9.7690 hc         1 WZZ       0.044700
     41 H18         35.2340    20.5520    -9.9850 hc         1 WZZ       0.064700
     42 H19         35.9900    19.1790   -10.7830 hc         1 WZZ       0.064700
     43 H20         35.9040    22.2850    -7.6540 ha         1 WZZ       0.170000
     44 H21         38.0070    25.5500    -8.3570 hn         1 WZZ       0.508000
     45 H22         33.7970    24.3590    -5.4570 h4         1 WZZ       0.012100
     46 H23         39.2130    21.6260   -10.1350 hn         1 WZZ       0.369000
     47 O07         34.2630    19.4990    -8.0160 os         1 WZZ      -0.462100
@<TRIPOS>BOND
     1     1    15 1   
     2     1    16 1   
     3     1    24 1   
     4     1    25 1   
     5     2    16 1   
     6     2    18 2   
     7     2    23 1   
     8     3    18 1   
     9     3    19 1   
    10     3    22 2   
    11     4     7 ar  
    12     4    19 1   
    13     4    20 ar  
    14     5     6 ar  
    15     5    21 ar  
    16     5    26 1   
    17     6     7 ar  
    18     6    27 1   
    19     7    28 1   
    20     8     9 1   
    21     8    29 1   
    22     8    30 1   
    23     8    31 1   
    24     9    10 1   
    25     9    11 1   
    26     9    32 1   
    27    10    33 1   
    28    10    34 1   
    29    10    35 1   
    30    11    12 1   
    31    11    36 1   
    32    12    13 2   
    33    12    47 1   
    34    14    15 1   
    35    14    17 1   
    36    14    37 1   
    37    14    47 1   
    38    15    38 1   
    39    15    39 1   
    40    16    17 1   
    41    16    40 1   
    42    17    41 1   
    43    17    42 1   
    44    18    43 1   
    45    19    44 1   
    46    20    21 ar  
    47    21    45 1   
    48    22    23 1   
    49    23    46 1   
@<TRIPOS>SUBSTRUCTURE
     1 WZZ         1 TEMP              0 ****  ****    0 ROOT
