@<TRIPOS>MOLECULE
WZZ
   47    49     1     0     0
SMALL
No Charge or Current Charge


@<TRIPOS>ATOM
      1 C10         37.0540    19.2210    -7.7970 c5         1 WZZ      -0.070400
      2 C13         37.5780    21.4130    -8.9500 cc         1 WZZ      -0.115300
      3 C15         37.6680    23.5600    -8.4120 cd         1 WZZ       0.512900
      4 C17         36.4110    25.3750    -7.1900 ca         1 WZZ       0.627900
      5 C20         34.4300    26.4730    -5.6530 ca         1 WZZ      -0.218000
      6 C21         35.4070    27.3300    -6.1780 ca         1 WZZ      -0.032000
      7 C22         36.4190    26.7590    -6.9630 ca         1 WZZ      -0.226000
      8 C01         32.1550    21.9240    -7.2730 c3         1 WZZ      -0.108600
      9 C02         32.8630    21.0550    -6.2130 c3         1 WZZ       0.127700
     10 C03         32.4280    21.4210    -4.7810 c3         1 WZZ      -0.108600
     11 N04         32.6230    19.6290    -6.4560 ns         1 WZZ      -0.504900
     12 C05         33.2810    18.8370    -7.3630 c          1 WZZ       0.637100
     13 O06         33.0210    17.6540    -7.5070 o          1 WZZ      -0.558000
     14 C08         35.0220    18.7760    -8.9930 c5         1 WZZ       0.186300
     15 C09         36.1400    18.0380    -8.2000 c5         1 WZZ      -0.102400
     16 C11         37.2130    19.9590    -9.1570 c5         1 WZZ      -0.003400
     17 C12         35.8180    19.8000    -9.8590 c5         1 WZZ      -0.075400
     18 C14         36.8830    22.3990    -8.3110 cd         1 WZZ      -0.217000
     19 N16         37.4020    24.7990    -7.9480 nu         1 WZZ      -0.901800
     20 N18         35.4830    24.5540    -6.6870 nb         1 WZZ      -0.732000
     21 C19         34.5060    25.0980    -5.9300 ca         1 WZZ       0.375900
     22 N24         38.7900    23.3920    -9.0660 nc         1 WZZ      -0.588800
     23 N23         38.7370    22.0410    -9.4020 na         1 WZZ      -0.015200
     24 H1          38.0160    18.8880    -7.3920 hc         1 WZZ       0.056700
     25 H2          36.5850    19.8520    -7.0310 hc         1 WZZ       0.056700
     26 H3          33.6230    26.8600    -5.0380 ha         1 WZZ       0.124000
     27 H4          35.3810    28.4010    -5.9830 ha         1 WZZ       0.117000
     28 H5          37.1980    27.3830    -7.3900 ha         1 WZZ       0.122000
     29 H6          32.3530    22.9870    -7.0950 hc         1 WZZ       0.043200
     30 H7          32.5140    21.6800    -8.2800 hc         1 WZZ       0.043200
     31 H8          31.0710    21.7650    -7.2460 hc         1 WZZ       0.043200
     32 H9          33.9440    21.2440    -6.2830 h1         1 WZZ       0.074700
     33 H10         32.9700    20.8130    -4.0470 hc         1 WZZ       0.043200
     34 H11         32.6390    22.4750    -4.5700 hc         1 WZZ       0.043200
     35 H12         31.3530    21.2520    -4.6430 hc         1 WZZ       0.043200
     36 H13         31.9120    19.1620    -5.9080 hn         1 WZZ       0.326500
     37 H14         34.3880    18.1150    -9.6010 h1         1 WZZ       0.079700
     38 H15         35.7620    17.4860    -7.3320 hc         1 WZZ       0.061200
     39 H16         36.6680    17.3170    -8.8350 hc         1 WZZ       0.061200
     40 H17         37.9820    19.4570    -9.7570 hc         1 WZZ       0.044700
     41 H18         35.2780    20.7490    -9.9510 hc         1 WZZ       0.064700
     42 H19         35.9470    19.4250   -10.8800 hc         1 WZZ       0.064700
     43 H20         35.9190    22.2980    -7.8310 ha         1 WZZ       0.170000
     44 H21         38.1210    25.4520    -8.2300 hn         1 WZZ       0.508000
     45 H22         33.7610    24.4120    -5.5320 h4         1 WZZ       0.012100
     46 H23         39.4890    21.5960    -9.9280 hn         1 WZZ       0.369000
     47 O07         34.2130    19.5510    -8.0690 os         1 WZZ      -0.462100
@<TRIPOS>BOND
     1     1    15 1   
     2     1    16 1   
     3     1    24 1   
     4     1    25 1   
     5     2    16 1   
     6     2    18 2   
     7     2    23 1   
     8     3    18 1   
     9     3    19 1   
    10     3    22 2   
    11     4     7 ar  
    12     4    19 1   
    13     4    20 ar  
    14     5     6 ar  
    15     5    21 ar  
    16     5    26 1   
    17     6     7 ar  
    18     6    27 1   
    19     7    28 1   
    20     8     9 1   
    21     8    29 1   
    22     8    30 1   
    23     8    31 1   
    24     9    10 1   
    25     9    11 1   
    26     9    32 1   
    27    10    33 1   
    28    10    34 1   
    29    10    35 1   
    30    11    12 1   
    31    11    36 1   
    32    12    13 2   
    33    12    47 1   
    34    14    15 1   
    35    14    17 1   
    36    14    37 1   
    37    14    47 1   
    38    15    38 1   
    39    15    39 1   
    40    16    17 1   
    41    16    40 1   
    42    17    41 1   
    43    17    42 1   
    44    18    43 1   
    45    19    44 1   
    46    20    21 ar  
    47    21    45 1   
    48    22    23 1   
    49    23    46 1   
@<TRIPOS>SUBSTRUCTURE
     1 WZZ         1 TEMP              0 ****  ****    0 ROOT
