@<TRIPOS>MOLECULE
C00
   40    43     1     0     0
SMALL
bcc


@<TRIPOS>ATOM
      1 C1          -5.3800     1.2420     0.0070 ca         1 C00      -0.123000
      2 C2          -5.2830     0.9800     1.3690 ca         1 C00      -0.113000
      3 C6          -3.0700     0.2330     1.0530 ca         1 C00      -0.136600
      4 C8          -3.1670     0.4970    -0.3060 ca         1 C00      -0.147600
      5 C15         -1.8750     0.1340    -0.9310 c          1 C00       0.738100
      6 C26          0.2420    -0.8240    -0.0780 ca         1 C00       0.008600
      7 C28          1.3430     0.0080     0.0230 ca         1 C00      -0.059000
      8 C30          2.6350    -0.4830    -0.1430 cp         1 C00      -0.066000
      9 C32          2.7790    -1.8440    -0.4170 ca         1 C00      -0.066000
     10 C34          1.6840    -2.6850    -0.5220 ca         1 C00      -0.223000
     11 C36          0.3970    -2.1830    -0.3520 ca         1 C00       0.158100
     12 C41          6.0990     0.7840     0.6570 ca         1 C00      -0.128000
     13 C21         -1.7220    -0.3090     1.3300 c          1 C00       0.736100
     14 C4          -4.1130     0.4640     1.9210 ca         1 C00      -0.072000
     15 N19         -1.0610    -0.3140     0.1090 n          1 C00      -0.440600
     16 O17         -1.5370     0.1920    -2.0840 o          1 C00      -0.555500
     17 C10         -4.3220     1.0090    -0.8790 ca         1 C00      -0.006300
     18 O39         -0.7110    -2.9300    -0.4380 oh         1 C00      -0.482100
     19 C45          3.8080     0.4050    -0.0290 cp         1 C00      -0.027000
     20 C46          4.9960    -0.0510     0.5460 ca         1 C00      -0.119500
     21 C44          3.7580     1.7220    -0.4900 ca         1 C00      -0.119500
     22 C43          4.8590     2.5580    -0.3760 ca         1 C00      -0.128000
     23 C42          6.0350     2.0930     0.1980 ca         1 C00      -0.126000
     24 H1          -6.3080     1.6420    -0.3820 ha         1 C00       0.137000
     25 H2          -6.1330     1.1820     2.0070 ha         1 C00       0.139000
     26 H13         -3.7370     2.0620    -2.6560 hc         1 C00       0.055700
     27 H13A        -4.2620     0.4150    -2.9430 hc         1 C00       0.055700
     28 H13B        -5.4520     1.6630    -2.5730 hc         1 C00       0.055700
     29 H28          1.1760     1.0530     0.2550 ha         1 C00       0.146000
     30 H32          3.7650    -2.2620    -0.5740 ha         1 C00       0.135000
     31 H34          1.8320    -3.7360    -0.7420 ha         1 C00       0.136000
     32 H41          7.0080     0.4120     1.1120 ha         1 C00       0.130500
     33 H4          -4.0330     0.2570     2.9800 ha         1 C00       0.156000
     34 HO39        -0.4880    -3.8510    -0.6120 ho         1 C00       0.430000
     35 H46          5.0570    -1.0610     0.9310 ha         1 C00       0.132000
     36 H44          2.8560     2.0950    -0.9610 ha         1 C00       0.132000
     37 H43          4.7990     3.5740    -0.7460 ha         1 C00       0.130500
     38 H42          6.8930     2.7460     0.2860 ha         1 C00       0.131000
     39 C13         -4.4520     1.3020    -2.3400 c3         1 C00      -0.052800
     40 O23         -1.2540    -0.6800     2.3750 o          1 C00      -0.553500
@<TRIPOS>BOND
     1     1     2 ar  
     2     1    17 ar  
     3     1    24 1   
     4     2    14 ar  
     5     2    25 1   
     6     3     4 ar  
     7     3    13 1   
     8     3    14 ar  
     9     4     5 1   
    10     4    17 ar  
    11     5    15 1   
    12     5    16 2   
    13     6     7 ar  
    14     6    11 ar  
    15     6    15 1   
    16     7     8 ar  
    17     7    29 1   
    18     8     9 ar  
    19     8    19 1   
    20     9    10 ar  
    21     9    30 1   
    22    10    11 ar  
    23    10    31 1   
    24    11    18 1   
    25    12    20 ar  
    26    12    23 ar  
    27    12    32 1   
    28    13    15 1   
    29    13    40 2   
    30    14    33 1   
    31    17    39 1   
    32    18    34 1   
    33    19    20 ar  
    34    19    21 ar  
    35    20    35 1   
    36    21    22 ar  
    37    21    36 1   
    38    22    23 ar  
    39    22    37 1   
    40    23    38 1   
    41    26    39 1   
    42    27    39 1   
    43    28    39 1   
@<TRIPOS>SUBSTRUCTURE
     1 C00         1 TEMP              0 ****  ****    0 ROOT
