@<TRIPOS>MOLECULE
C00
   40    43     1     0     0
SMALL
No Charge or Current Charge


@<TRIPOS>ATOM
      1 C1          -5.4720     1.2990     0.0960 ca         1 C00      -0.105000
      2 C2          -5.1350     1.4730     1.4600 ca         1 C00      -0.095000
      3 C6          -2.9370     0.6010     1.0080 ca         1 C00      -0.136600
      4 C8          -3.2650     0.4270    -0.3300 ca         1 C00      -0.147600
      5 C15         -2.0660    -0.1390    -1.0250 c          1 C00       0.595600
      6 C26          0.2340    -0.8100    -0.2750 ca         1 C00       0.008600
      7 C28          1.3570    -0.0090     0.0090 ca         1 C00      -0.041000
      8 C30          2.6770    -0.4790    -0.2090 cp         1 C00      -0.066000
      9 C32          2.8370    -1.7910    -0.7180 ca         1 C00      -0.048000
     10 C34          1.7230    -2.6030    -0.9940 ca         1 C00      -0.205000
     11 C36          0.4240    -2.1200    -0.7730 ca         1 C00       0.158100
     12 C41          6.1780     0.6390     0.8810 ca         1 C00      -0.110000
     13 C21         -1.5330     0.1490     1.2150 c          1 C00       0.593600
     14 C4          -3.8530     1.1220     1.9310 ca         1 C00      -0.054000
     15 N19         -1.0830    -0.2850    -0.0360 n          1 C00      -0.306600
     16 O17         -1.9470    -0.3860    -2.2170 o          1 C00      -0.480000
     17 C10         -4.5370     0.7710    -0.8240 ca         1 C00      -0.006300
     18 O39         -0.6400    -2.9460    -1.0100 oh         1 C00      -0.521100
     19 C45          3.8630     0.3850     0.0910 cp         1 C00      -0.027000
     20 C46          5.0650    -0.1720     0.5990 ca         1 C00      -0.101500
     21 C44          3.8230     1.7860    -0.1250 ca         1 C00      -0.101500
     22 C43          4.9370     2.5970     0.1560 ca         1 C00      -0.110000
     23 C42          6.1150     2.0230     0.6590 ca         1 C00      -0.108000
     24 H1          -6.4680     1.5770    -0.2430 ha         1 C00       0.119000
     25 H2          -5.8700     1.8810     2.1500 ha         1 C00       0.121000
     26 H13         -4.2560     1.1880    -2.9360 hc         1 C00       0.055700
     27 H13A        -4.8040    -0.4630    -2.5900 hc         1 C00       0.055700
     28 H13B        -5.9410     0.8870    -2.4890 hc         1 C00       0.055700
     29 H28          1.2030     0.9890     0.4100 ha         1 C00       0.128000
     30 H32          3.8330    -2.1820    -0.9100 ha         1 C00       0.117000
     31 H34          1.8810    -3.6080    -1.3760 ha         1 C00       0.118000
     32 H41          7.0890     0.1920     1.2740 ha         1 C00       0.112500
     33 H4          -3.5850     1.2530     2.9780 ha         1 C00       0.138000
     34 HO39        -0.2990    -3.8000    -1.3470 ho         1 C00       0.469000
     35 H46          5.1310    -1.2390     0.7910 ha         1 C00       0.114000
     36 H44          2.9260     2.2500    -0.5280 ha         1 C00       0.114000
     37 H43          4.8870     3.6690    -0.0200 ha         1 C00       0.112500
     38 H42          6.9770     2.6500     0.8770 ha         1 C00       0.113000
     39 C13         -4.9060     0.5860    -2.2890 c3         1 C00      -0.052800
     40 O23         -0.9030     0.1500     2.2640 o          1 C00      -0.478000
@<TRIPOS>BOND
     1     1     2 ar  
     2     1    17 ar  
     3     1    24 1   
     4     2    14 ar  
     5     2    25 1   
     6     3     4 ar  
     7     3    13 1   
     8     3    14 ar  
     9     4     5 1   
    10     4    17 ar  
    11     5    15 1   
    12     5    16 2   
    13     6     7 ar  
    14     6    11 ar  
    15     6    15 1   
    16     7     8 ar  
    17     7    29 1   
    18     8     9 ar  
    19     8    19 1   
    20     9    10 ar  
    21     9    30 1   
    22    10    11 ar  
    23    10    31 1   
    24    11    18 1   
    25    12    20 ar  
    26    12    23 ar  
    27    12    32 1   
    28    13    15 1   
    29    13    40 2   
    30    14    33 1   
    31    17    39 1   
    32    18    34 1   
    33    19    20 ar  
    34    19    21 ar  
    35    20    35 1   
    36    21    22 ar  
    37    21    36 1   
    38    22    23 ar  
    39    22    37 1   
    40    23    38 1   
    41    26    39 1   
    42    27    39 1   
    43    28    39 1   
@<TRIPOS>SUBSTRUCTURE
     1 C00         1 TEMP              0 ****  ****    0 ROOT
