@<TRIPOS>MOLECULE
C01
   61    63     1     0     0
SMALL
bcc


@<TRIPOS>ATOM
      1 C1          -2.2980     1.5980    -0.0410 ca         1 C01      -0.118300
      2 C2          -1.2150     0.6850     0.0240 ca         1 C01       0.217100
      3 C3          -1.3890    -0.7040    -0.0060 ca         1 C01      -0.156300
      4 C4          -2.7130    -1.1140    -0.0810 ca         1 C01       0.120100
      5 C5          -3.7920    -0.2610    -0.1300 ca         1 C01      -0.263600
      6 C6          -3.5910     1.1130    -0.1230 ca         1 C01      -0.026000
      7 O8          -3.1120    -2.4080    -0.1290 os         1 C01      -0.102200
      8 N9          -4.4900    -2.3650    -0.1750 n          1 C01      -0.371300
      9 C10         -4.9810    -1.0950    -0.2170 c          1 C01       0.736100
     10 C11         -5.1410    -3.6210    -0.3920 c3         1 C01       0.121300
     11 O15         -6.1650    -0.8020    -0.3020 o          1 C01      -0.634500
     12 C16         -0.2700    -1.7030    -0.0790 c3         1 C01      -0.017100
     13 C17          0.2320    -1.9090    -1.5100 c3         1 C01      -0.071400
     14 C20          1.4110    -2.8690    -1.5580 c3         1 C01      -0.091100
     15 C26         -2.0470     3.0800    -0.0740 c3         1 C01      -0.030100
     16 C27         -1.6140     3.5810    -1.4530 c3         1 C01      -0.061400
     17 C30         -1.3260     5.0750    -1.4460 c3         1 C01      -0.089100
     18 O36          0.0280     1.2180     0.0540 os         1 C01      -0.328900
     19 C37          0.8360     1.0330     1.2120 c3         1 C01       0.042400
     20 C38          2.1640     0.4400     0.8130 ca         1 C01      -0.048300
     21 C39          1.1170     2.3720     1.9510 c          1 C01       0.934600
     22 C40          2.9270    -0.2600     1.7430 ca         1 C01      -0.112000
     23 C41          4.1530    -0.8030     1.3900 ca         1 C01      -0.137500
     24 C42          4.6640    -0.6640     0.1020 ca         1 C01      -0.105300
     25 C43          3.9010     0.0500    -0.8190 ca         1 C01      -0.137500
     26 C44          2.6750     0.5990    -0.4710 ca         1 C01      -0.112000
     27 C49          5.9730    -1.3110    -0.2840 c3         1 C01      -0.008400
     28 C50          5.7260    -2.5470    -1.1520 c3         1 C01      -0.081100
     29 C54          6.9220    -0.3420    -0.9880 c3         1 C01      -0.081100
     30 O60          1.0400     3.4230     1.2990 o          1 C01      -0.804300
     31 O61          1.4440     2.2280     3.1440 o          1 C01      -0.804300
     32 H6          -4.4300     1.7960    -0.1720 ha         1 C01       0.143000
     33 H111        -4.8590    -4.0560    -1.3510 h1         1 C01       0.046367
     34 H112        -4.9130    -4.3210     0.4100 h1         1 C01       0.046367
     35 H113        -6.2100    -3.4300    -0.3930 h1         1 C01       0.046367
     36 H161         0.5710    -1.4020     0.5430 hc         1 C01       0.053700
     37 H162        -0.6040    -2.6620     0.3260 hc         1 C01       0.053700
     38 H171        -0.5860    -2.2830    -2.1320 hc         1 C01       0.041200
     39 H172         0.5270    -0.9450    -1.9310 hc         1 C01       0.041200
     40 H201         1.7480    -3.0350    -2.5820 hc         1 C01       0.029367
     41 H202         2.2570    -2.4670    -0.9960 hc         1 C01       0.029367
     42 H203         1.1530    -3.8400    -1.1320 hc         1 C01       0.029367
     43 H261        -1.2800     3.3540     0.6490 hc         1 C01       0.067700
     44 H262        -2.9660     3.5970     0.2170 hc         1 C01       0.067700
     45 H271        -2.3940     3.3550    -2.1860 hc         1 C01       0.034700
     46 H272        -0.7210     3.0370    -1.7680 hc         1 C01       0.034700
     47 H301        -0.5270     5.3110    -0.7400 hc         1 C01       0.029700
     48 H302        -1.0180     5.4290    -2.4300 hc         1 C01       0.029700
     49 H303        -2.2080     5.6470    -1.1490 hc         1 C01       0.029700
     50 H37          0.3310     0.3580     1.9120 h1         1 C01       0.047700
     51 H40          2.5540    -0.3950     2.7510 ha         1 C01       0.144000
     52 H41          4.7200    -1.3570     2.1300 ha         1 C01       0.111000
     53 H43          4.2580     0.1820    -1.8340 ha         1 C01       0.111000
     54 H44          2.1090     1.1380    -1.2190 ha         1 C01       0.144000
     55 H49          6.4590    -1.6430     0.6390 hc         1 C01       0.040700
     56 H501         5.0870    -3.2700    -0.6430 hc         1 C01       0.028200
     57 H502         5.2400    -2.2750    -2.0910 hc         1 C01       0.028200
     58 H503         6.6680    -3.0430    -1.3970 hc         1 C01       0.028200
     59 H541         7.1050     0.5500    -0.3890 hc         1 C01       0.028200
     60 H542         7.8830    -0.8230    -1.1780 hc         1 C01       0.028200
     61 H543         6.5240    -0.0220    -1.9530 hc         1 C01       0.028200
@<TRIPOS>BOND
     1     1     2 ar  
     2     1     6 ar  
     3     1    15 1   
     4     2     3 ar  
     5     2    18 1   
     6     3     4 ar  
     7     3    12 1   
     8     4     5 ar  
     9     4     7 1   
    10     5     6 ar  
    11     5     9 1   
    12     6    32 1   
    13     7     8 1   
    14     8     9 1   
    15     8    10 1   
    16     9    11 2   
    17    10    33 1   
    18    10    34 1   
    19    10    35 1   
    20    12    13 1   
    21    12    36 1   
    22    12    37 1   
    23    13    14 1   
    24    13    38 1   
    25    13    39 1   
    26    14    40 1   
    27    14    41 1   
    28    14    42 1   
    29    15    16 1   
    30    15    43 1   
    31    15    44 1   
    32    16    17 1   
    33    16    45 1   
    34    16    46 1   
    35    17    47 1   
    36    17    48 1   
    37    17    49 1   
    38    18    19 1   
    39    19    20 1   
    40    19    21 1   
    41    19    50 1   
    42    20    22 ar  
    43    20    26 ar  
    44    21    30 1   
    45    21    31 1   
    46    22    23 ar  
    47    22    51 1   
    48    23    24 ar  
    49    23    52 1   
    50    24    25 ar  
    51    24    27 1   
    52    25    26 ar  
    53    25    53 1   
    54    26    54 1   
    55    27    28 1   
    56    27    29 1   
    57    27    55 1   
    58    28    56 1   
    59    28    57 1   
    60    28    58 1   
    61    29    59 1   
    62    29    60 1   
    63    29    61 1   
@<TRIPOS>SUBSTRUCTURE
     1 C01         1 TEMP              0 ****  ****    0 ROOT
