@<TRIPOS>MOLECULE
C01
   61    63     1     0     0
SMALL
No Charge or Current Charge


@<TRIPOS>ATOM
      1 C1          -2.3300     1.5720    -0.0950 ca         1 C01      -0.118300
      2 C2          -1.2240     0.6720    -0.0380 ca         1 C01       0.217100
      3 C3          -1.4340    -0.7400    -0.0390 ca         1 C01      -0.156300
      4 C4          -2.7640    -1.1980    -0.0530 ca         1 C01       0.120100
      5 C5          -3.8260    -0.3110    -0.0800 ca         1 C01      -0.263600
      6 C6          -3.6480     1.0720    -0.1090 ca         1 C01      -0.008000
      7 O8          -3.1530    -2.5300    -0.0620 os         1 C01      -0.102200
      8 N9          -4.5790    -2.4040    -0.0880 n          1 C01      -0.304300
      9 C10         -5.0570    -1.0990    -0.1050 c          1 C01       0.593600
     10 C11         -5.3960    -3.6260    -0.1090 c3         1 C01       0.121300
     11 O15         -6.2180    -0.7150    -0.1330 o          1 C01      -0.559000
     12 C16         -0.2880    -1.7580    -0.0780 c3         1 C01      -0.017100
     13 C17          0.4320    -1.7930    -1.4450 c3         1 C01      -0.071400
     14 C20          1.6010    -2.7950    -1.4890 c3         1 C01      -0.091100
     15 C26         -2.1290     3.0850    -0.1570 c3         1 C01      -0.030100
     16 C27         -1.7210     3.5680    -1.5660 c3         1 C01      -0.061400
     17 C30         -1.5370     5.0960    -1.6540 c3         1 C01      -0.089100
     18 O36          0.0570     1.1950    -0.0400 os         1 C01      -0.352100
     19 C37          0.8950     1.1130     1.1470 c3         1 C01       0.065600
     20 C38          2.2260     0.4580     0.7680 ca         1 C01      -0.048300
     21 C39          1.1670     2.5030     1.8140 c          1 C01       0.724000
     22 C40          2.8190    -0.4860     1.6280 ca         1 C01      -0.094000
     23 C41          4.0310    -1.1070     1.2800 ca         1 C01      -0.119500
     24 C42          4.6720    -0.7930     0.0660 ca         1 C01      -0.105300
     25 C43          4.0860     0.1620    -0.7890 ca         1 C01      -0.119500
     26 C44          2.8770     0.7860    -0.4390 ca         1 C01      -0.094000
     27 C49          5.9780    -1.4940    -0.3170 c3         1 C01      -0.008400
     28 C50          5.7950    -2.3710    -1.5750 c3         1 C01      -0.081100
     29 C54          7.1380    -0.4880    -0.4840 c3         1 C01      -0.081100
     30 O60          1.1620     3.5170     1.1270 o          1 C01      -0.699000
     31 O61          1.4000     2.5200     3.0170 o          1 C01      -0.699000
     32 H6          -4.5070     1.7400    -0.1520 ha         1 C01       0.125000
     33 H111        -5.9940    -3.6540    -1.0280 h1         1 C01       0.046367
     34 H112        -4.7470    -4.5110    -0.0740 h1         1 C01       0.046367
     35 H113        -6.0660    -3.6370     0.7590 h1         1 C01       0.046367
     36 H161         0.4340    -1.5550     0.7170 hc         1 C01       0.053700
     37 H162        -0.6580    -2.7670     0.1380 hc         1 C01       0.053700
     38 H171        -0.2930    -2.0540    -2.2260 hc         1 C01       0.041200
     39 H172         0.8120    -0.7950    -1.6900 hc         1 C01       0.041200
     40 H201         2.0910    -2.7690    -2.4700 hc         1 C01       0.029367
     41 H202         2.3510    -2.5510    -0.7270 hc         1 C01       0.029367
     42 H203         1.2450    -3.8160    -1.3080 hc         1 C01       0.029367
     43 H261        -1.3750     3.3990     0.5720 hc         1 C01       0.067700
     44 H262        -3.0510     3.6020     0.1380 hc         1 C01       0.067700
     45 H271        -2.4860     3.2590    -2.2890 hc         1 C01       0.034700
     46 H272        -0.7850     3.0800    -1.8640 hc         1 C01       0.034700
     47 H301        -0.7530     5.4320    -0.9650 hc         1 C01       0.029700
     48 H302        -1.2480     5.3880    -2.6700 hc         1 C01       0.029700
     49 H303        -2.4690     5.6140    -1.3990 hc         1 C01       0.029700
     50 H37          0.4020     0.4930     1.9060 h1         1 C01       0.047700
     51 H40          2.3360    -0.7460     2.5680 ha         1 C01       0.126000
     52 H41          4.4650    -1.8400     1.9550 ha         1 C01       0.093000
     53 H43          4.5620     0.4210    -1.7310 ha         1 C01       0.093000
     54 H44          2.4380     1.5190    -1.1120 ha         1 C01       0.126000
     55 H49          6.2670    -2.1710     0.4970 hc         1 C01       0.040700
     56 H501         4.9880    -3.0970    -1.4220 hc         1 C01       0.028200
     57 H502         5.5450    -1.7590    -2.4510 hc         1 C01       0.028200
     58 H503         6.7140    -2.9260    -1.7970 hc         1 C01       0.028200
     59 H541         7.2600     0.1110     0.4260 hc         1 C01       0.028200
     60 H542         8.0810    -1.0140    -0.6730 hc         1 C01       0.028200
     61 H543         6.9550     0.1950    -1.3220 hc         1 C01       0.028200
@<TRIPOS>BOND
     1     1     2 ar  
     2     1     6 ar  
     3     1    15 1   
     4     2     3 ar  
     5     2    18 1   
     6     3     4 ar  
     7     3    12 1   
     8     4     5 ar  
     9     4     7 1   
    10     5     6 ar  
    11     5     9 1   
    12     6    32 1   
    13     7     8 1   
    14     8     9 1   
    15     8    10 1   
    16     9    11 2   
    17    10    33 1   
    18    10    34 1   
    19    10    35 1   
    20    12    13 1   
    21    12    36 1   
    22    12    37 1   
    23    13    14 1   
    24    13    38 1   
    25    13    39 1   
    26    14    40 1   
    27    14    41 1   
    28    14    42 1   
    29    15    16 1   
    30    15    43 1   
    31    15    44 1   
    32    16    17 1   
    33    16    45 1   
    34    16    46 1   
    35    17    47 1   
    36    17    48 1   
    37    17    49 1   
    38    18    19 1   
    39    19    20 1   
    40    19    21 1   
    41    19    50 1   
    42    20    22 ar  
    43    20    26 ar  
    44    21    30 1   
    45    21    31 1   
    46    22    23 ar  
    47    22    51 1   
    48    23    24 ar  
    49    23    52 1   
    50    24    25 ar  
    51    24    27 1   
    52    25    26 ar  
    53    25    53 1   
    54    26    54 1   
    55    27    28 1   
    56    27    29 1   
    57    27    55 1   
    58    28    56 1   
    59    28    57 1   
    60    28    58 1   
    61    29    59 1   
    62    29    60 1   
    63    29    61 1   
@<TRIPOS>SUBSTRUCTURE
     1 C01         1 TEMP              0 ****  ****    0 ROOT
