@<TRIPOS>MOLECULE
C03
   61    65     1     0     0
SMALL
No Charge or Current Charge


@<TRIPOS>ATOM
      1 C1          -4.4670   -12.5100    -0.8840 ca         1 C03      -0.113000
      2 C2          -5.8090   -12.8770    -1.1020 ca         1 C03      -0.065000
      3 C3          -6.5770   -12.1140    -1.9970 ca         1 C03      -0.063800
      4 C4          -6.0700   -10.9700    -2.5550 ca         1 C03      -0.039200
      5 C5          -4.7390   -10.5690    -2.3380 ca         1 C03      -0.090000
      6 C6          -3.9180   -11.3700    -1.5060 ca         1 C03       0.123100
      7 C10         -7.9780   -12.1880    -2.3560 cc         1 C03      -0.218800
      8 C11         -8.2760   -10.9920    -3.0230 cd         1 C03       0.015700
      9 N12         -7.0660   -10.2840    -3.2330 na         1 C03      -0.075700
     10 C13         -8.9640   -13.2130    -2.0600 cc         1 C03       0.505200
     11 C14         -9.6040   -10.5000    -3.5620 c3         1 C03      -0.047900
     12 C18         -6.8460    -9.0050    -3.9420 c3         1 C03       0.121900
     13 O19         -2.5950   -11.0740    -1.2280 os         1 C03      -0.428100
     14 C20         -1.8930    -9.9350    -1.7670 c3         1 C03       0.512000
     15 F21         -1.8510    -9.9570    -3.1200 f          1 C03      -0.099000
     16 F22         -0.6120    -9.9170    -1.3360 f          1 C03      -0.099000
     17 F23         -2.4520    -8.7630    -1.3870 f          1 C03      -0.099000
     18 C24         -7.0570    -7.7330    -3.1100 ca         1 C03      -0.076300
     19 C27         -7.4260    -7.7870    -1.7430 ca         1 C03      -0.170000
     20 C28         -7.6210    -6.6010    -1.0020 ca         1 C03       0.233100
     21 C29         -7.4510    -5.3580    -1.6290 ca         1 C03      -0.159000
     22 C30         -7.0800    -5.2910    -2.9810 ca         1 C03      -0.071000
     23 C31         -6.8840    -6.4700    -3.7180 ca         1 C03       0.056000
     24 Cl1         -6.4220    -6.3360    -5.4140 cl         1 C03      -0.258000
     25 O36         -8.0020    -6.6000     0.3280 os         1 C03      -0.331100
     26 C37         -8.0890    -7.8070     1.1290 c3         1 C03       0.008300
     27 C38         -8.8270    -7.4120     2.4260 c3         1 C03      -0.066100
     28 C42         -6.6970    -8.4530     1.4470 c          1 C03       0.705000
     29 O44         -5.6720    -7.8330     1.1950 o          1 C03      -0.706500
     30 O45         -6.6910    -9.5840     1.9170 o          1 C03      -0.706500
     31 N46        -10.2870   -13.0040    -2.0500 nd         1 C03      -0.305700
     32 O47        -10.9160   -14.2480    -1.6360 os         1 C03      -0.128100
     33 C48         -9.9110   -15.1620    -1.5170 ca         1 C03       0.114100
     34 C49         -8.6990   -14.6070    -1.7920 ca         1 C03      -0.274900
     35 C50        -10.0720   -16.5260    -1.2550 ca         1 C03      -0.229000
     36 C51         -8.9230   -17.3490    -1.3090 ca         1 C03       0.178100
     37 C52         -7.6790   -16.7890    -1.6690 ca         1 C03      -0.186000
     38 C53         -7.5570   -15.4110    -1.9440 ca         1 C03       0.010000
     39 O57         -8.9730   -18.7050    -1.0660 os         1 C03      -0.341100
     40 C58        -10.1950   -19.3720    -0.7020 c3         1 C03       0.148900
     41 H1          -3.8530   -13.0970    -0.2060 ha         1 C03       0.126000
     42 H2          -6.2350   -13.7040    -0.5440 ha         1 C03       0.118000
     43 H5          -4.3720    -9.6530    -2.7850 ha         1 C03       0.141000
     44 H141        -9.5230    -9.5410    -4.0830 hc         1 C03       0.057367
     45 H142       -10.0310   -11.2200    -4.2710 hc         1 C03       0.057367
     46 H143       -10.3250   -10.3550    -2.7500 hc         1 C03       0.057367
     47 H181        -7.5140    -8.9760    -4.8110 h1         1 C03       0.068200
     48 H182        -5.8260    -9.0020    -4.3450 h1         1 C03       0.068200
     49 H27         -7.5630    -8.7480    -1.2610 ha         1 C03       0.147000
     50 H29         -7.6070    -4.4440    -1.0630 ha         1 C03       0.123000
     51 H30         -6.9480    -4.3230    -3.4600 ha         1 C03       0.111000
     52 H37         -8.7040    -8.5590     0.6170 h1         1 C03       0.030700
     53 H381        -8.9940    -8.2920     3.0580 hc         1 C03       0.030367
     54 H382        -9.8030    -6.9690     2.1970 hc         1 C03       0.030367
     55 H383        -8.2400    -6.6840     3.0000 hc         1 C03       0.030367
     56 H50        -11.0610   -16.9180    -1.0420 ha         1 C03       0.134000
     57 H52         -6.8090   -17.4330    -1.7610 ha         1 C03       0.127000
     58 H53         -6.6120   -15.0120    -2.3030 ha         1 C03       0.135000
     59 H581       -10.9470   -19.2700    -1.4940 h1         1 C03       0.041367
     60 H582       -10.6040   -18.9560     0.2280 h1         1 C03       0.041367
     61 H583       -10.0110   -20.4420    -0.5440 h1         1 C03       0.041367
@<TRIPOS>BOND
     1     1     2 ar  
     2     1     6 ar  
     3     1    41 1   
     4     2     3 ar  
     5     2    42 1   
     6     3     4 ar  
     7     3     7 1   
     8     4     5 ar  
     9     4     9 1   
    10     5     6 ar  
    11     5    43 1   
    12     6    13 1   
    13     7     8 2   
    14     7    10 1   
    15     8     9 1   
    16     8    11 1   
    17     9    12 1   
    18    10    31 2   
    19    10    34 1   
    20    11    44 1   
    21    11    45 1   
    22    11    46 1   
    23    12    18 1   
    24    12    47 1   
    25    12    48 1   
    26    13    14 1   
    27    14    15 1   
    28    14    16 1   
    29    14    17 1   
    30    18    19 ar  
    31    18    23 ar  
    32    19    20 ar  
    33    19    49 1   
    34    20    21 ar  
    35    20    25 1   
    36    21    22 ar  
    37    21    50 1   
    38    22    23 ar  
    39    22    51 1   
    40    23    24 1   
    41    25    26 1   
    42    26    27 1   
    43    26    28 1   
    44    26    52 1   
    45    27    53 1   
    46    27    54 1   
    47    27    55 1   
    48    28    29 1   
    49    28    30 1   
    50    31    32 1   
    51    32    33 1   
    52    33    34 ar  
    53    33    35 ar  
    54    34    38 ar  
    55    35    36 ar  
    56    35    56 1   
    57    36    37 ar  
    58    36    39 1   
    59    37    38 ar  
    60    37    57 1   
    61    38    58 1   
    62    39    40 1   
    63    40    59 1   
    64    40    60 1   
    65    40    61 1   
@<TRIPOS>SUBSTRUCTURE
     1 C03         1 TEMP              0 ****  ****    0 ROOT
