@<TRIPOS>MOLECULE
C03
   61    65     1     0     0
SMALL
bcc


@<TRIPOS>ATOM
      1 C1          -4.3770   -12.3340    -0.8670 ca         1 C03      -0.131000
      2 C2          -5.6850   -12.7290    -1.0620 ca         1 C03      -0.083000
      3 C3          -6.4950   -11.9980    -1.9340 ca         1 C03      -0.063800
      4 C4          -5.9540   -10.8790    -2.5930 ca         1 C03      -0.039200
      5 C5          -4.6410   -10.4630    -2.4050 ca         1 C03      -0.108000
      6 C6          -3.8800   -11.2130    -1.5360 ca         1 C03       0.123100
      7 C10         -7.8680   -12.0810    -2.3350 cc         1 C03      -0.218800
      8 C11         -8.1040   -11.0350    -3.1950 cd         1 C03       0.015700
      9 N12         -6.9430   -10.3260    -3.3650 na         1 C03      -0.046400
     10 C13         -8.8240   -13.0830    -1.9010 cc         1 C03       0.505200
     11 C14         -9.3450   -10.6550    -3.9140 c3         1 C03      -0.047900
     12 C18         -6.8390    -9.0880    -4.0940 c3         1 C03       0.092600
     13 O19         -2.5410   -10.8750    -1.3600 os         1 C03      -0.404900
     14 C20         -2.2330   -10.0090    -0.3850 c3         1 C03       0.852700
     15 F21         -2.8020    -8.8190    -0.5500 f          1 C03      -0.220300
     16 F22         -0.9150    -9.8460    -0.4050 f          1 C03      -0.220300
     17 F23         -2.5760   -10.4480     0.8260 f          1 C03      -0.220300
     18 C24         -7.3070    -7.8910    -3.2970 ca         1 C03      -0.076300
     19 C27         -7.4190    -7.9600    -1.9130 ca         1 C03      -0.188000
     20 C28         -7.8680    -6.8720    -1.1670 ca         1 C03       0.233100
     21 C29         -8.2080    -5.6920    -1.8310 ca         1 C03      -0.177000
     22 C30         -8.0830    -5.6060    -3.2040 ca         1 C03      -0.089000
     23 C31         -7.6300    -6.6970    -3.9300 ca         1 C03      -0.035600
     24 CL1         -7.4700    -6.5470    -5.6560 cl         1 C03      -0.166400
     25 O36         -8.0530    -6.8890     0.1570 os         1 C03      -0.307900
     26 C37         -7.5130    -7.9570     0.9310 c3         1 C03      -0.014900
     27 C38         -8.0570    -7.7790     2.3380 c3         1 C03      -0.066100
     28 C42         -5.9600    -7.9540     0.9430 c          1 C03       0.915600
     29 O44         -5.3950    -6.9490     0.4840 o          1 C03      -0.811800
     30 O45         -5.4560    -8.9600     1.4690 o          1 C03      -0.811800
     31 N46        -10.0240   -12.7600    -1.5160 nd         1 C03      -0.404200
     32 O47        -10.6920   -13.9220    -1.1950 os         1 C03      -0.029600
     33 C48         -9.8670   -14.9600    -1.3770 ca         1 C03       0.114100
     34 C49         -8.6440   -14.5020    -1.8340 ca         1 C03      -0.274900
     35 C50        -10.1710   -16.2990    -1.1650 ca         1 C03      -0.247000
     36 C51         -9.1530   -17.1980    -1.4510 ca         1 C03       0.178100
     37 C52         -7.8980   -16.7580    -1.9400 ca         1 C03      -0.204000
     38 C53         -7.6370   -15.4240    -2.1370 ca         1 C03      -0.008000
     39 O57         -9.2680   -18.5230    -1.2990 os         1 C03      -0.317900
     40 C58        -10.4870   -19.0470    -0.8050 c3         1 C03       0.125700
     41 H1          -3.7320   -12.8930    -0.2020 ha         1 C03       0.144000
     42 H2          -6.0690   -13.5880    -0.5270 ha         1 C03       0.136000
     43 H5          -4.2290    -9.5990    -2.9110 ha         1 C03       0.159000
     44 H141        -9.1810   -10.6000    -4.9910 hc         1 C03       0.057367
     45 H142       -10.1300   -11.3840    -3.7290 hc         1 C03       0.057367
     46 H143        -9.7160    -9.6810    -3.5890 hc         1 C03       0.057367
     47 H181        -7.4170    -9.1780    -5.0140 h1         1 C03       0.068200
     48 H182        -5.8040    -8.9540    -4.4120 h1         1 C03       0.068200
     49 H27         -7.1480    -8.8820    -1.4180 ha         1 C03       0.165000
     50 H29         -8.5670    -4.8400    -1.2680 ha         1 C03       0.141000
     51 H30         -8.3420    -4.6860    -3.7100 ha         1 C03       0.129000
     52 H37         -7.8750    -8.9180     0.5420 h1         1 C03       0.030700
     53 H381        -7.7090    -8.5940     2.9690 hc         1 C03       0.030367
     54 H382        -9.1480    -7.7870     2.3490 hc         1 C03       0.030367
     55 H383        -7.7170    -6.8400     2.7790 hc         1 C03       0.030367
     56 H50        -11.1440   -16.6010    -0.8030 ha         1 C03       0.152000
     57 H52         -7.1430   -17.5000    -2.1610 ha         1 C03       0.145000
     58 H53         -6.6770   -15.1050    -2.5210 ha         1 C03       0.153000
     59 H581       -11.3240   -18.8230    -1.4700 h1         1 C03       0.041367
     60 H582       -10.7140   -18.6670     0.1940 h1         1 C03       0.041367
     61 H583       -10.3590   -20.1250    -0.7520 h1         1 C03       0.041367
@<TRIPOS>BOND
     1     1     2 ar  
     2     1     6 ar  
     3     1    41 1   
     4     2     3 ar  
     5     2    42 1   
     6     3     4 ar  
     7     3     7 1   
     8     4     5 ar  
     9     4     9 1   
    10     5     6 ar  
    11     5    43 1   
    12     6    13 1   
    13     7     8 2   
    14     7    10 1   
    15     8     9 1   
    16     8    11 1   
    17     9    12 1   
    18    10    31 2   
    19    10    34 1   
    20    11    44 1   
    21    11    45 1   
    22    11    46 1   
    23    12    18 1   
    24    12    47 1   
    25    12    48 1   
    26    13    14 1   
    27    14    15 1   
    28    14    16 1   
    29    14    17 1   
    30    18    19 ar  
    31    18    23 ar  
    32    19    20 ar  
    33    19    49 1   
    34    20    21 ar  
    35    20    25 1   
    36    21    22 ar  
    37    21    50 1   
    38    22    23 ar  
    39    22    51 1   
    40    23    24 1   
    41    25    26 1   
    42    26    27 1   
    43    26    28 1   
    44    26    52 1   
    45    27    53 1   
    46    27    54 1   
    47    27    55 1   
    48    28    29 1   
    49    28    30 1   
    50    31    32 1   
    51    32    33 1   
    52    33    34 ar  
    53    33    35 ar  
    54    34    38 ar  
    55    35    36 ar  
    56    35    56 1   
    57    36    37 ar  
    58    36    39 1   
    59    37    38 ar  
    60    37    57 1   
    61    38    58 1   
    62    39    40 1   
    63    40    59 1   
    64    40    60 1   
    65    40    61 1   
@<TRIPOS>SUBSTRUCTURE
     1 C03         1 TEMP              0 ****  ****    0 ROOT
