@<TRIPOS>MOLECULE
C04
   43    45     1     0     0
SMALL
bcc


@<TRIPOS>ATOM
      1 C1          -6.7080    -0.9120    -0.5960 c2         1 C04      -0.332000
      2 N1          -2.5230     1.5160    -0.2360 nj         1 C04      -0.363000
      3 O1          -1.2880     2.4700     1.5310 o          1 C04      -0.526500
      4 S1           1.6350    -4.5590     0.0150 ss         1 C04      -0.324300
      5 C2          -5.9440     0.0830    -0.1350 ce         1 C04      -0.023000
      6 N2           0.5340     0.4910    -0.1420 ns         1 C04      -0.539900
      7 O2           2.0800     1.0400    -1.7100 o          1 C04      -0.563100
      8 S2          -2.0480    -0.9800    -1.0290 ss         1 C04      -0.414200
      9 C3          -4.5090     0.2390    -0.3550 ce         1 C04      -0.241200
     10 N3           3.8430    -0.5750     0.0950 n2         1 C04      -0.381200
     11 O3           4.3330     0.6590    -0.0980 os         1 C04      -0.103300
     12 C4          -3.8540     1.3260     0.1130 cf         1 C04       0.052400
     13 N4           0.8010    -2.1960     0.5410 nc         1 C04      -0.727000
     14 O4           7.4690     2.2230     0.4230 o          1 C04      -0.820300
     15 C5          -1.7730     0.7910    -1.2360 cy         1 C04       0.144800
     16 N5          -0.7280    -3.8600     1.1390 nv         1 C04      -0.938500
     17 O5           5.4880     3.0250    -0.2340 o          1 C04      -0.820300
     18 C6          -0.4800     1.3730    -0.6050 cy         1 C04       0.025700
     19 O6          -5.1350     2.1450     1.9370 o          1 C04      -0.793800
     20 C7          -1.4260     1.9340     0.4660 c          1 C04       0.719500
     21 O7          -4.1460     3.5980     0.5560 o          1 C04      -0.793800
     22 C9           2.6100    -0.7210    -0.1890 ce         1 C04       0.225300
     23 C10          5.7020     0.7060     0.2920 c3         1 C04      -0.019600
     24 C11          6.2590     2.1290     0.1380 c          1 C04       0.935600
     25 C12          2.0490    -2.0680    -0.0080 cc         1 C04       0.393000
     26 C13          2.6660    -3.2230    -0.3570 cd         1 C04      -0.185400
     27 C14          0.4380    -3.4400     0.6100 cd         1 C04       0.722300
     28 C15         -3.8520    -0.8270    -1.1990 c6         1 C04       0.093900
     29 C16         -4.4410     2.4620     0.9580 c          1 C04       0.933800
     30 H1          -6.3340    -1.7420    -1.1810 ha         1 C04       0.086000
     31 H1A         -7.7700    -0.9210    -0.3870 ha         1 C04       0.086000
     32 H2          -6.4250     0.8580     0.4450 ha         1 C04       0.152000
     33 HN2          0.2820    -0.2440     0.5130 hn         1 C04       0.356500
     34 H5          -1.9930     1.0980    -2.2590 h2         1 C04       0.090700
     35 HN5         -1.0650    -4.7820     0.9180 hn         1 C04       0.428300
     36 HN5A        -1.4460    -3.1580     1.2310 hn         1 C04       0.428300
     37 H6          -0.0440     2.1520    -1.2310 h1         1 C04       0.117700
     38 H10          5.8060     0.3870     1.3350 h1         1 C04       0.019200
     39 H10A         6.2890     0.0130    -0.3200 h1         1 C04       0.019200
     40 H13          3.6260    -3.3640    -0.8260 h4         1 C04       0.185000
     41 H15         -4.1030    -0.6930    -2.2550 h1         1 C04       0.051200
     42 H15A        -4.2330    -1.8080    -0.9120 h1         1 C04       0.051200
     43 C8           1.7260     0.3660    -0.7640 c          1 C04       0.590800
@<TRIPOS>BOND
     1     1     5 2   
     2     1    30 1   
     3     1    31 1   
     4     2    12 1   
     5     2    15 1   
     6     2    20 1   
     7     3    20 2   
     8     4    26 1   
     9     4    27 1   
    10     5     9 1   
    11     5    32 1   
    12     6    18 1   
    13     6    33 1   
    14     6    43 1   
    15     7    43 2   
    16     8    15 1   
    17     8    28 1   
    18     9    12 2   
    19     9    28 1   
    20    10    11 1   
    21    10    22 2   
    22    11    23 1   
    23    12    29 1   
    24    13    25 1   
    25    13    27 2   
    26    14    24 1   
    27    15    18 1   
    28    15    34 1   
    29    16    27 1   
    30    16    35 1   
    31    16    36 1   
    32    17    24 1   
    33    18    20 1   
    34    18    37 1   
    35    19    29 1   
    36    21    29 1   
    37    22    25 1   
    38    22    43 1   
    39    23    24 1   
    40    23    38 1   
    41    23    39 1   
    42    25    26 2   
    43    26    40 1   
    44    28    41 1   
    45    28    42 1   
@<TRIPOS>SUBSTRUCTURE
     1 C04         1 TEMP              0 ****  ****    0 ROOT
