@<TRIPOS>MOLECULE
C04
   43    45     1     0     0
SMALL
No Charge or Current Charge


@<TRIPOS>ATOM
      1 C1          -6.3480    -1.5100    -1.3410 c2         1 C04      -0.432000
      2 N1          -2.8280     1.3650     0.0990 nj         1 C04      -0.296000
      3 O1          -2.0270     2.2310     2.2030 o          1 C04      -0.451000
      4 S1           2.1100    -3.8910     1.5220 ss         1 C04      -0.179400
      5 C2          -5.9290    -0.2330    -1.2010 ce         1 C04      -0.073000
      6 N2           0.2310     0.8310     0.0480 ns         1 C04      -0.472900
      7 O2           1.5510     1.6510    -1.5880 o          1 C04      -0.563100
      8 S2          -2.0820     0.1470    -2.1760 ss         1 C04      -0.510000
      9 C3          -4.5610     0.1690    -0.8100 ce         1 C04      -0.241200
     10 N3           3.5100    -0.2790    -1.0530 n2         1 C04      -0.282700
     11 O3           4.5110    -0.1010    -0.0790 os         1 C04      -0.225000
     12 C4          -4.2430     1.3220    -0.1200 cf         1 C04       0.052400
     13 N4           0.7450    -1.7440     0.8790 nc         1 C04      -0.727000
     14 O4           8.0990     0.3180    -0.1470 o          1 C04      -0.715000
     15 C5          -2.0020     1.6630    -1.0700 cy         1 C04       0.192700
     16 N5          -0.4410    -3.1490     2.1650 nv         1 C04      -1.048900
     17 O5           6.7180     0.2650     1.5030 o          1 C04      -0.715000
     18 C6          -0.8050     1.8500    -0.0570 cy         1 C04       0.025700
     19 O6          -6.3790     2.2570     0.3980 o          1 C04      -0.688500
     20 C7          -1.9390     1.8990     1.0280 c          1 C04       0.577000
     21 O7          -4.6520     3.3690     1.0010 o          1 C04      -0.688500
     22 C9           2.3120    -0.4040    -0.5520 ce         1 C04       0.225300
     23 C10          5.8030     0.0120    -0.7140 c3         1 C04       0.003600
     24 C11          6.9650     0.2150     0.3030 c          1 C04       0.725000
     25 C12          1.9840    -1.5980     0.2770 cc         1 C04       0.327700
     26 C13          2.8430    -2.6570     0.5120 cd         1 C04      -0.247000
     27 C14          0.7010    -2.8650     1.5400 cd         1 C04       0.722300
     28 C15         -3.4390    -0.7790    -1.2900 c6         1 C04       0.141800
     29 C16         -5.1640     2.3880     0.4760 c          1 C04       0.723200
     30 H1          -5.6980    -2.3660    -1.1610 ha         1 C04       0.136000
     31 H1A         -7.3770    -1.7350    -1.6260 ha         1 C04       0.136000
     32 H2          -6.6450     0.5760    -1.3700 ha         1 C04       0.202000
     33 HN2          0.1050     0.0360     0.6730 hn         1 C04       0.356500
     34 H5          -2.3160     2.5520    -1.6280 h2         1 C04       0.090700
     35 HN5         -0.6070    -4.1240     2.3840 hn         1 C04       0.483500
     36 HN5A        -1.2410    -2.6110     1.8620 hn         1 C04       0.483500
     37 H6          -0.3240     2.8280    -0.1620 h1         1 C04       0.117700
     38 H10          6.0220    -0.8950    -1.2920 h1         1 C04       0.019200
     39 H10A         5.8140     0.8660    -1.4040 h1         1 C04       0.019200
     40 H13          3.8560    -2.7760     0.1470 h4         1 C04       0.167000
     41 H15         -3.8130    -1.5410    -1.9880 h1         1 C04       0.051200
     42 H15A        -2.9970    -1.2980    -0.4280 h1         1 C04       0.051200
     43 C8           1.3440     0.7570    -0.7700 c          1 C04       0.523800
@<TRIPOS>BOND
     1     1     5 2   
     2     1    30 1   
     3     1    31 1   
     4     2    12 1   
     5     2    15 1   
     6     2    20 1   
     7     3    20 2   
     8     4    26 1   
     9     4    27 1   
    10     5     9 1   
    11     5    32 1   
    12     6    18 1   
    13     6    33 1   
    14     6    43 1   
    15     7    43 2   
    16     8    15 1   
    17     8    28 1   
    18     9    12 2   
    19     9    28 1   
    20    10    11 1   
    21    10    22 2   
    22    11    23 1   
    23    12    29 1   
    24    13    25 1   
    25    13    27 2   
    26    14    24 1   
    27    15    18 1   
    28    15    34 1   
    29    16    27 1   
    30    16    35 1   
    31    16    36 1   
    32    17    24 1   
    33    18    20 1   
    34    18    37 1   
    35    19    29 1   
    36    21    29 1   
    37    22    25 1   
    38    22    43 1   
    39    23    24 1   
    40    23    38 1   
    41    23    39 1   
    42    25    26 2   
    43    26    40 1   
    44    28    41 1   
    45    28    42 1   
@<TRIPOS>SUBSTRUCTURE
     1 C04         1 TEMP              0 ****  ****    0 ROOT
