@<TRIPOS>MOLECULE
C05
   41    43     1     0     0
SMALL
No Charge or Current Charge


@<TRIPOS>ATOM
      1 N           -3.8580     1.5810     1.9310 nc         1 C05      -0.205800
      2 S           -0.9270    -0.3080     0.1650 ss         1 C05      -0.247300
      3 O1           5.8380    -1.6320    -0.7740 os         1 C05      -0.224000
      4 C           -1.9960     0.7660     1.0690 cc         1 C05       0.463800
      5 C1          -4.1840    -0.3960     0.4510 c5         1 C05       0.090300
      6 N1          -2.8140     2.2700     2.3350 nd         1 C05      -0.043000
      7 C2          -5.6090    -0.6190     1.0270 c5         1 C05      -0.085900
      8 N2          -1.6340     1.7780     1.8200 nd         1 C05      -0.415000
      9 C3          -6.2010    -1.6070    -0.0130 c5         1 C05      -0.080400
     10 N3          -3.3490     0.6060     1.1290 na         1 C05      -0.065700
     11 C4          -5.6250    -1.1140    -1.3790 c5         1 C05      -0.080400
     12 C5          -4.5710    -0.0280    -1.0050 c5         1 C05      -0.085900
     13 C6           0.7180     0.5570     0.2440 c3         1 C05      -0.029700
     14 C7           1.8650    -0.4210    -0.0950 c          1 C05       0.615100
     15 C8           0.7250     1.7900    -0.6920 c3         1 C05      -0.083100
     16 C9           3.9290    -1.5390     0.8230 c3         1 C05       0.076700
     17 C10          5.0800    -0.8860     0.1030 cc         1 C05       0.087300
     18 C11          5.5620     0.3940     0.1520 cd         1 C05      -0.170000
     19 C12          6.6610     0.4530    -0.7290 cd         1 C05      -0.191000
     20 C13          6.8060    -0.7910    -1.2800 cc         1 C05       0.129900
     21 H           -3.6410    -1.3520     0.4580 h1         1 C05       0.076700
     22 H2          -5.5900    -1.0430     2.0380 hc         1 C05       0.060950
     23 H1          -6.1900     0.3100     1.0720 hc         1 C05       0.060950
     24 H4          -5.8800    -2.6350     0.1960 hc         1 C05       0.053200
     25 H3          -7.2980    -1.6090    -0.0000 hc         1 C05       0.053200
     26 H5          -5.1640    -1.9450    -1.9280 hc         1 C05       0.053200
     27 H6          -6.4060    -0.7020    -2.0290 hc         1 C05       0.053200
     28 H13          2.5740    -0.2050     1.8180 hn         1 C05       0.321500
     29 H8          -5.0050     0.9790    -1.0570 hc         1 C05       0.060950
     30 H7          -3.7070    -0.0380    -1.6800 hc         1 C05       0.060950
     31 H9           0.8750     0.8980     1.2750 h1         1 C05       0.103700
     32 H12          0.5500     1.4900    -1.7320 hc         1 C05       0.056033
     33 H11         -0.0530     2.5070    -0.4080 hc         1 C05       0.056033
     34 H10          1.6930     2.3040    -0.6420 hc         1 C05       0.056033
     35 H15          4.2570    -1.8210     1.8320 h1         1 C05       0.077200
     36 H14          3.6470    -2.4610     0.2960 h1         1 C05       0.077200
     37 H16          5.1680     1.2040     0.7570 ha         1 C05       0.140000
     38 H17          7.2810     1.3190    -0.9390 ha         1 C05       0.144000
     39 H18          7.5080    -1.1950    -1.9970 h4         1 C05       0.055100
     40 O            1.9920    -0.9420    -1.1950 o          1 C05      -0.581100
     41 N4           2.7490    -0.6700     0.9350 ns         1 C05      -0.495900
@<TRIPOS>BOND
     1     1     6 2   
     2     1    10 1   
     3     2     4 1   
     4     2    13 1   
     5     3    17 1   
     6     3    20 1   
     7     4     8 2   
     8     4    10 1   
     9     5     7 1   
    10     5    10 1   
    11     5    12 1   
    12     5    21 1   
    13     6     8 1   
    14     7     9 1   
    15     7    22 1   
    16     7    23 1   
    17     9    11 1   
    18     9    24 1   
    19     9    25 1   
    20    11    12 1   
    21    11    26 1   
    22    11    27 1   
    23    12    29 1   
    24    12    30 1   
    25    13    14 1   
    26    13    15 1   
    27    13    31 1   
    28    14    40 2   
    29    14    41 1   
    30    15    32 1   
    31    15    33 1   
    32    15    34 1   
    33    16    17 1   
    34    16    35 1   
    35    16    36 1   
    36    16    41 1   
    37    17    18 2   
    38    18    19 1   
    39    18    37 1   
    40    19    20 2   
    41    19    38 1   
    42    20    39 1   
    43    28    41 1   
@<TRIPOS>SUBSTRUCTURE
     1 C05         1 TEMP              0 ****  ****    0 ROOT
