@<TRIPOS>MOLECULE
C05
   41    43     1     0     0
SMALL
abcg2


@<TRIPOS>ATOM
      1 N           -3.9440     1.3390     1.1680 nc         1 C05      -0.205800
      2 S           -0.8100    -0.6670     0.2810 ss         1 C05      -0.247300
      3 O1           4.8400    -0.5170    -1.0450 os         1 C05      -0.224000
      4 C           -2.0040     0.4780     0.8010 cc         1 C05       0.463800
      5 C1          -4.0450    -0.8280     0.0570 c5         1 C05       0.090300
      6 N1          -3.0480     2.1400     1.5820 nd         1 C05      -0.043000
      7 C2          -5.2720    -1.2480     0.8860 c5         1 C05      -0.085900
      8 N2          -1.8260     1.6470     1.3760 nd         1 C05      -0.415000
      9 C3          -6.4690    -0.6600     0.1440 c5         1 C05      -0.080400
     10 N3          -3.3200     0.2780     0.6720 na         1 C05      -0.065700
     11 C4          -6.0690    -0.8270    -1.3190 c5         1 C05      -0.080400
     12 C5          -4.5870    -0.4410    -1.3390 c5         1 C05      -0.085900
     13 C6           0.6920     0.3330     0.5650 c3         1 C05      -0.029700
     14 C7           1.8250    -0.6790     0.5330 c          1 C05       0.615100
     15 C8           0.8860     1.3890    -0.5150 c3         1 C05      -0.083100
     16 C9           4.1520    -1.0590     1.2220 c3         1 C05       0.076700
     17 C10          5.1440    -0.4910     0.2710 cc         1 C05       0.087300
     18 C11          6.3490     0.1010     0.4540 cd         1 C05      -0.170000
     19 C12          6.8200     0.4620    -0.8470 cd         1 C05      -0.191000
     20 C13          5.8590     0.0650    -1.7120 cc         1 C05       0.129900
     21 H           -3.3300    -1.6480    -0.0050 h1         1 C05       0.076700
     22 H2          -5.3330    -2.3380     0.8660 hc         1 C05       0.060950
     23 H1          -5.1980    -0.9500     1.9310 hc         1 C05       0.060950
     24 H4          -7.4040    -1.1610     0.3960 hc         1 C05       0.053200
     25 H3          -6.5850     0.4000     0.3860 hc         1 C05       0.053200
     26 H5          -6.1960    -1.8700    -1.6200 hc         1 C05       0.053200
     27 H6          -6.6600    -0.2170    -2.0030 hc         1 C05       0.053200
     28 H13          2.8940     0.5540     1.7370 hn         1 C05       0.321500
     29 H8          -4.4830     0.6350    -1.4870 hc         1 C05       0.060950
     30 H7          -4.0290    -0.9310    -2.1360 hc         1 C05       0.060950
     31 H9           0.6130     0.8020     1.5470 h1         1 C05       0.103700
     32 H12          0.9680     0.9330    -1.5000 hc         1 C05       0.056033
     33 H11          0.0520     2.0870    -0.5210 hc         1 C05       0.056033
     34 H10          1.7940     1.9620    -0.3230 hc         1 C05       0.056033
     35 H15          4.5810    -1.0380     2.2230 h1         1 C05       0.077200
     36 H14          3.9350    -2.1020     0.9880 h1         1 C05       0.077200
     37 H16          6.8430     0.2620     1.3990 ha         1 C05       0.140000
     38 H17          7.7450     0.9540    -1.0980 ha         1 C05       0.144000
     39 H18          5.7650     0.1240    -2.7840 h4         1 C05       0.055100
     40 O            1.7240    -1.7090    -0.1140 o          1 C05      -0.581100
     41 N4           2.9070    -0.3200     1.2340 ns         1 C05      -0.495900
@<TRIPOS>BOND
     1     1     6 2   
     2     1    10 1   
     3     2     4 1   
     4     2    13 1   
     5     3    17 1   
     6     3    20 1   
     7     4     8 2   
     8     4    10 1   
     9     5     7 1   
    10     5    10 1   
    11     5    12 1   
    12     5    21 1   
    13     6     8 1   
    14     7     9 1   
    15     7    22 1   
    16     7    23 1   
    17     9    11 1   
    18     9    24 1   
    19     9    25 1   
    20    11    12 1   
    21    11    26 1   
    22    11    27 1   
    23    12    29 1   
    24    12    30 1   
    25    13    14 1   
    26    13    15 1   
    27    13    31 1   
    28    14    40 2   
    29    14    41 1   
    30    15    32 1   
    31    15    33 1   
    32    15    34 1   
    33    16    17 1   
    34    16    35 1   
    35    16    36 1   
    36    16    41 1   
    37    17    18 2   
    38    18    19 1   
    39    18    37 1   
    40    19    20 2   
    41    19    38 1   
    42    20    39 1   
    43    28    41 1   
@<TRIPOS>SUBSTRUCTURE
     1 C05         1 TEMP              0 ****  ****    0 ROOT
