@<TRIPOS>MOLECULE
C06
   61    64     1     0     0
SMALL
abcg2


@<TRIPOS>ATOM
      1 O3          -4.0630     2.5980     1.5650 o          1 C06      -0.842000
      2 C4          -6.4190     0.1040    -0.6450 c6         1 C06       0.111300
      3 C5          -5.2980    -0.1700     0.3600 c6         1 C06       0.432300
      4 O4          -2.0920     1.7070     0.1610 os         1 C06      -0.684800
      5 C6           1.4360     2.7900    -0.4990 c3         1 C06       0.229600
      6 N1           4.3990    -2.8760    -0.5080 nc         1 C06      -0.633000
      7 C7           2.4750     1.8400    -1.0410 c5         1 C06       0.166300
      8 C8           3.7800     2.5420    -1.4110 c5         1 C06       0.084300
      9 N2           6.4030    -0.7070     1.4970 nd         1 C06      -0.686100
     10 C9           4.8000     1.4100    -1.2580 c5         1 C06       0.081300
     11 C10          4.2340     0.6990    -0.0280 c5         1 C06       0.310300
     12 C11          3.8770    -1.7040    -0.7020 cd         1 C06       0.470400
     13 C12          5.4420    -2.6540     0.3550 cc         1 C06       0.101500
     14 N3           7.2800    -2.8730     1.7580 ns         1 C06      -0.459400
     15 C13          5.5270    -1.3140     0.6830 cd         1 C06       0.122400
     16 C14          7.2720    -1.5330     2.0230 cc         1 C06       0.707800
     17 O8           2.8430     0.8870    -0.0490 os         1 C06      -0.406000
     18 C15          6.3870    -3.5560     0.9210 c          1 C06       0.522500
     19 N4           8.2340    -1.0680     2.8350 nv         1 C06      -1.056200
     20 N            4.5150    -0.7140     0.0020 na         1 C06      -0.154500
     21 C           -5.4020    -3.7840     0.8470 c3         1 C06      -0.083100
     22 O           -4.9220    -1.5170     0.3450 os         1 C06      -0.428000
     23 P           -3.3240     1.3560     1.1830 p5         1 C06       1.459800
     24 P1          -1.0040     2.9080     0.4290 p5         1 C06       1.456800
     25 C1          -5.9690    -2.3850     0.7330 c6         1 C06       0.153300
     26 O1          -4.1830     0.5700    -0.0030 os         1 C06      -0.552400
     27 C2          -7.1460    -2.2950    -0.2460 c6         1 C06       0.154300
     28 O2          -2.8940     0.3670     2.2160 o          1 C06      -0.842000
     29 C3          -7.5810    -0.8380    -0.3390 c6         1 C06       0.179300
     30 O9           6.4880    -4.7610     0.7600 o          1 C06      -0.546000
     31 O10          4.7650     0.5440    -2.3550 oh         1 C06      -0.706000
     32 O11          3.7020     3.0650    -2.7060 oh         1 C06      -0.697000
     33 O13         -8.6380    -0.7290    -1.2560 oh         1 C06      -0.651000
     34 O14         -6.8300    -2.7890    -1.5230 oh         1 C06      -0.665000
     35 H1          -6.7630     1.1370    -0.4650 h1         1 C06       0.029700
     36 H2          -5.6690     0.1010     1.3650 h2         1 C06       0.008700
     37 H3           1.8160     3.2580     0.4180 h1         1 C06       0.022200
     38 H4           1.2870     3.5860    -1.2370 h1         1 C06       0.022200
     39 H5           2.0720     1.3230    -1.9220 h1         1 C06       0.084700
     40 H6           4.0010     3.3210    -0.6690 h1         1 C06       0.052700
     41 H7           5.8130     1.7800    -1.0600 h1         1 C06       0.042700
     42 H8           4.6690     1.1260     0.8810 h2         1 C06       0.087700
     43 H10          3.0220    -1.5000    -1.3270 h5         1 C06       0.087100
     44 H11          7.9950    -3.4420     2.1910 hn         1 C06       0.306500
     45 H12          8.7550    -1.6940     3.4260 hn         1 C06       0.489500
     46 H13          8.1420    -0.1220     3.1650 hn         1 C06       0.489500
     47 H14         -4.6350    -3.8320     1.6190 hc         1 C06       0.035033
     48 H15         -6.1910    -4.4870     1.1190 hc         1 C06       0.035033
     49 H16         -4.9560    -4.1170    -0.0910 hc         1 C06       0.035033
     50 H17         -6.3500    -2.0830     1.7220 h1         1 C06       0.021700
     51 H18         -7.9770    -2.8630     0.1990 h1         1 C06       0.001700
     52 H20         -7.9180    -0.5710     0.6760 h1         1 C06       0.016700
     53 H21          4.6650     1.0810    -3.1510 ho         1 C06       0.516000
     54 H22          4.3820     3.7380    -2.8130 ho         1 C06       0.495000
     55 H23         -5.2840     0.5670    -2.1270 ho         1 C06       0.532000
     56 H24         -8.9690     0.1740    -1.2300 ho         1 C06       0.432000
     57 H25         -6.8290    -3.7490    -1.4780 ho         1 C06       0.474000
     58 O5          -0.7600     3.0650     1.8960 o          1 C06      -0.849500
     59 O6          -1.3350     4.0950    -0.4190 o          1 C06      -0.849500
     60 O7           0.2400     2.0800    -0.2630 os         1 C06      -0.560400
     61 O12         -5.9960    -0.0610    -1.9690 oh         1 C06      -0.705000
@<TRIPOS>BOND
     1     1    23 1   
     2     2     3 1   
     3     2    29 1   
     4     2    35 1   
     5     2    61 1   
     6     3    22 1   
     7     3    26 1   
     8     3    36 1   
     9     4    23 1   
    10     4    24 1   
    11     5     7 1   
    12     5    37 1   
    13     5    38 1   
    14     5    60 1   
    15     6    12 2   
    16     6    13 1   
    17     7     8 1   
    18     7    17 1   
    19     7    39 1   
    20     8    10 1   
    21     8    32 1   
    22     8    40 1   
    23     9    15 1   
    24     9    16 2   
    25    10    11 1   
    26    10    31 1   
    27    10    41 1   
    28    11    17 1   
    29    11    20 1   
    30    11    42 1   
    31    12    20 1   
    32    12    43 1   
    33    13    15 2   
    34    13    18 1   
    35    14    16 1   
    36    14    18 1   
    37    14    44 1   
    38    15    20 1   
    39    16    19 1   
    40    18    30 2   
    41    19    45 1   
    42    19    46 1   
    43    21    25 1   
    44    21    47 1   
    45    21    48 1   
    46    21    49 1   
    47    22    25 1   
    48    23    26 1   
    49    23    28 1   
    50    24    58 1   
    51    24    59 1   
    52    24    60 1   
    53    25    27 1   
    54    25    50 1   
    55    27    29 1   
    56    27    34 1   
    57    27    51 1   
    58    29    33 1   
    59    29    52 1   
    60    31    53 1   
    61    32    54 1   
    62    33    56 1   
    63    34    57 1   
    64    55    61 1   
@<TRIPOS>SUBSTRUCTURE
     1 C06         1 TEMP              0 ****  ****    0 ROOT
