@<TRIPOS>MOLECULE
C06
   61    64     1     0     0
SMALL
No Charge or Current Charge


@<TRIPOS>ATOM
      1 O3          -3.4780     2.3840    -0.0150 o          1 C06      -0.842000
      2 C4          -4.3460    -0.4890     0.3710 c6         1 C06       0.111300
      3 C5          -2.7850    -0.7470     0.4990 c6         1 C06       0.432300
      4 O4          -0.9830     2.4950     0.7020 os         1 C06      -0.684800
      5 C6           1.5510     4.2830    -0.0420 c3         1 C06       0.229600
      6 N1           1.0440    -2.1360     0.6920 nc         1 C06      -0.633000
      7 C7           1.7630     2.8360    -0.5800 c5         1 C06       0.166300
      8 C8           2.9450     2.6950    -1.5870 c5         1 C06       0.084300
      9 N2           4.5100    -1.4610     1.3730 nd         1 C06      -0.686100
     10 C9           3.0990     1.1490    -1.5850 c5         1 C06       0.081300
     11 C10          2.9770     0.8830    -0.0380 c5         1 C06       0.310300
     12 C11          1.1710    -0.8980     0.2000 cd         1 C06       0.470400
     13 C12          2.2890    -2.4610     1.1800 cc         1 C06       0.101500
     14 N3           4.0500    -3.6650     2.1800 ns         1 C06      -0.459400
     15 C13          3.1680    -1.4290     0.9880 cd         1 C06       0.122400
     16 C14          4.8440    -2.5950     1.9470 cc         1 C06       0.707800
     17 O8           2.1270     1.9310     0.4930 os         1 C06      -0.406000
     18 C15          2.7350    -3.7170     1.8330 c          1 C06       0.522500
     19 N4           6.0960    -2.7090     2.3500 nv         1 C06      -1.056200
     20 N            2.4680    -0.4220     0.3680 na         1 C06      -0.154500
     21 C           -2.3120    -3.9560    -1.3680 c3         1 C06      -0.083100
     22 O           -2.3620    -1.7160    -0.4840 os         1 C06      -0.428000
     23 P           -2.3990     1.8320     0.8580 p5         1 C06       1.459800
     24 P1          -1.0460     4.0620     0.5810 p5         1 C06       1.456800
     25 C1          -3.0150    -2.9970    -0.3740 c6         1 C06       0.153300
     26 O1          -1.9780     0.4080     0.2600 os         1 C06      -0.552400
     27 C2          -4.5460    -2.8360    -0.6420 c6         1 C06       0.154300
     28 O2          -2.7930     1.6920     2.2890 o          1 C06      -0.842000
     29 C3          -5.1010    -1.8550     0.4420 c6         1 C06       0.179300
     30 O9           2.0470    -4.7050     2.0540 o          1 C06      -0.546000
     31 O10          2.0620     0.5560    -2.3860 oh         1 C06      -0.706000
     32 O11          2.6490     3.1930    -2.9030 oh         1 C06      -0.697000
     33 O13         -6.5160    -1.6430     0.2960 oh         1 C06      -0.651000
     34 O14         -4.7940    -2.2980    -1.9580 oh         1 C06      -0.665000
     35 H1          -4.6720     0.0940     1.2430 h1         1 C06       0.029700
     36 H2          -2.5680    -1.1350     1.5050 h2         1 C06       0.008700
     37 H3           2.4940     4.6300     0.4000 h1         1 C06       0.022200
     38 H4           1.3290     4.9460    -0.8880 h1         1 C06       0.022200
     39 H5           0.8330     2.4830    -1.0440 h1         1 C06       0.084700
     40 H6           3.8470     3.1790    -1.1850 h1         1 C06       0.052700
     41 H7           4.0860     0.8440    -1.9570 h1         1 C06       0.042700
     42 H8           3.9690     0.9770     0.4210 h2         1 C06       0.087700
     43 H10          0.4010    -0.3060    -0.2790 h5         1 C06       0.087100
     44 H11          4.4410    -4.4860     2.6100 hn         1 C06       0.306500
     45 H12          6.2640    -3.3060     3.1510 hn         1 C06       0.489500
     46 H13          6.6120    -1.8380     2.3410 hn         1 C06       0.489500
     47 H14         -1.2500    -4.0680    -1.1170 hc         1 C06       0.035033
     48 H15         -2.7660    -4.9530    -1.3370 hc         1 C06       0.035033
     49 H16         -2.3760    -3.5890    -2.3990 hc         1 C06       0.035033
     50 H17         -2.8600    -3.3870     0.6430 h1         1 C06       0.021700
     51 H18         -5.0340    -3.8150    -0.5350 h1         1 C06       0.001700
     52 H20         -4.9080    -2.3010     1.4290 h1         1 C06       0.016700
     53 H21          1.8600     1.2440    -3.0670 ho         1 C06       0.516000
     54 H22          3.5050     3.4340    -3.3310 ho         1 C06       0.495000
     55 H23         -4.3070     1.1510    -0.7040 ho         1 C06       0.532000
     56 H24         -6.5940    -0.9520    -0.3990 ho         1 C06       0.432000
     57 H25         -4.6780    -1.3190    -1.8390 ho         1 C06       0.474000
     58 O5          -1.9080     4.7150     1.6100 o          1 C06      -0.849500
     59 O6          -1.3400     4.5360    -0.8030 o          1 C06      -0.849500
     60 O7           0.4990     4.3590     0.9430 os         1 C06      -0.560400
     61 O12         -4.6960     0.2290    -0.8460 oh         1 C06      -0.705000
@<TRIPOS>BOND
     1     1    23 1   
     2     2     3 1   
     3     2    29 1   
     4     2    35 1   
     5     2    61 1   
     6     3    22 1   
     7     3    26 1   
     8     3    36 1   
     9     4    23 1   
    10     4    24 1   
    11     5     7 1   
    12     5    37 1   
    13     5    38 1   
    14     5    60 1   
    15     6    12 2   
    16     6    13 1   
    17     7     8 1   
    18     7    17 1   
    19     7    39 1   
    20     8    10 1   
    21     8    32 1   
    22     8    40 1   
    23     9    15 1   
    24     9    16 2   
    25    10    11 1   
    26    10    31 1   
    27    10    41 1   
    28    11    17 1   
    29    11    20 1   
    30    11    42 1   
    31    12    20 1   
    32    12    43 1   
    33    13    15 2   
    34    13    18 1   
    35    14    16 1   
    36    14    18 1   
    37    14    44 1   
    38    15    20 1   
    39    16    19 1   
    40    18    30 2   
    41    19    45 1   
    42    19    46 1   
    43    21    25 1   
    44    21    47 1   
    45    21    48 1   
    46    21    49 1   
    47    22    25 1   
    48    23    26 1   
    49    23    28 1   
    50    24    58 1   
    51    24    59 1   
    52    24    60 1   
    53    25    27 1   
    54    25    50 1   
    55    27    29 1   
    56    27    34 1   
    57    27    51 1   
    58    29    33 1   
    59    29    52 1   
    60    31    53 1   
    61    32    54 1   
    62    33    56 1   
    63    34    57 1   
    64    55    61 1   
@<TRIPOS>SUBSTRUCTURE
     1 C06         1 TEMP              0 ****  ****    0 ROOT
