@<TRIPOS>MOLECULE
C09
   32    34     1     0     0
SMALL
No Charge or Current Charge


@<TRIPOS>ATOM
      1 N            1.8830     3.3390    -0.0840 nv         1 C09      -1.055900
      2 C            1.6790     2.0160    -0.0750 ca         1 C09       0.684900
      3 C4           0.4050     1.3970    -0.0520 ca         1 C09      -0.035600
      4 N2          -0.8790     1.9510    -0.0410 nc         1 C09      -0.557100
      5 C5          -1.6610     0.8510    -0.0170 cd         1 C09       0.381800
      6 C6          -3.1770     0.9310     0.0030 c3         1 C09       0.148300
      7 O           -3.7600    -0.3940     0.0310 os         1 C09      -0.473000
      8 C7          -5.1950    -0.4130     0.0510 c3         1 C09       0.163600
      9 C8          -5.6380    -1.8830     0.0790 c3         1 C09      -0.094100
     10 N3          -0.9510    -0.3580    -0.0100 na         1 C09      -0.266600
     11 C3           0.3600     0.0370    -0.0310 ca         1 C09      -0.033200
     12 C2           1.5430    -0.7210    -0.0280 ca         1 C09      -0.102000
     13 C9           1.5230    -2.1300    -0.0070 ca         1 C09      -0.078000
     14 C10          2.7300    -2.8450    -0.0020 ca         1 C09      -0.131000
     15 C11          3.9550    -2.1590    -0.0190 ca         1 C09      -0.091000
     16 C12          3.9740    -0.7520    -0.0400 ca         1 C09      -0.103000
     17 C1           2.7790    -0.0090    -0.0460 ca         1 C09       0.338000
     18 N1           2.8360     1.3520    -0.0660 nb         1 C09      -0.790000
     19 H1           1.1020     3.9000     0.2340 hn         1 C09       0.488000
     20 H2           2.8040     3.6250     0.2200 hn         1 C09       0.488000
     21 H4          -3.4840     1.5060     0.8870 h1         1 C09       0.050700
     22 H5          -3.5090     1.4790    -0.8890 h1         1 C09       0.050700
     23 H6          -5.5800     0.1040     0.9400 h1         1 C09       0.025700
     24 H7          -5.6040     0.0770    -0.8430 h1         1 C09       0.025700
     25 H8          -5.2500    -2.3860     0.9730 hc         1 C09       0.046033
     26 H9          -6.7320    -1.9500     0.0950 hc         1 C09       0.046033
     27 H10         -5.2740    -2.4130    -0.8090 hc         1 C09       0.046033
     28 H12          0.5800    -2.6720     0.0070 ha         1 C09       0.102000
     29 H13          2.7170    -3.9330     0.0150 ha         1 C09       0.112000
     30 H14          4.8900    -2.7140    -0.0150 ha         1 C09       0.113000
     31 H15          4.9270    -0.2300    -0.0530 ha         1 C09       0.128000
     32 H3          -1.3450    -1.2890     0.0080 hn         1 C09       0.371000
@<TRIPOS>BOND
     1     1     2 1   
     2     1    19 1   
     3     1    20 1   
     4     2     3 ar  
     5     2    18 ar  
     6     3     4 1   
     7     3    11 ar  
     8     4     5 2   
     9     5     6 1   
    10     5    10 1   
    11     6     7 1   
    12     6    21 1   
    13     6    22 1   
    14     7     8 1   
    15     8     9 1   
    16     8    23 1   
    17     8    24 1   
    18     9    25 1   
    19     9    26 1   
    20     9    27 1   
    21    10    11 1   
    22    10    32 1   
    23    11    12 ar  
    24    12    13 ar  
    25    12    17 ar  
    26    13    14 ar  
    27    13    28 1   
    28    14    15 ar  
    29    14    29 1   
    30    15    16 ar  
    31    15    30 1   
    32    16    17 ar  
    33    16    31 1   
    34    17    18 ar  
@<TRIPOS>SUBSTRUCTURE
     1 C09         1 TEMP              0 ****  ****    0 ROOT
