@<TRIPOS>MOLECULE
C09
   32    34     1     0     0
SMALL
bcc


@<TRIPOS>ATOM
      1 N            1.6800     3.3090    -0.4750 nv         1 C09      -0.945500
      2 C            1.6390     1.9750    -0.2630 ca         1 C09       0.750200
      3 C4           0.3810     1.3320    -0.0730 ca         1 C09      -0.100900
      4 N2          -0.8800     1.8630    -0.0380 nc         1 C09      -0.557100
      5 C5          -1.6640     0.8400     0.1660 cd         1 C09       0.381800
      6 C6          -3.1420     0.8990     0.3430 c3         1 C09       0.125100
      7 O           -3.6920    -0.2930    -0.1440 os         1 C09      -0.426600
      8 C7          -5.0810    -0.4000     0.1010 c3         1 C09       0.140400
      9 C8          -5.5740    -1.7260    -0.4290 c3         1 C09      -0.094100
     10 N3          -0.9740    -0.3280     0.2620 na         1 C09      -0.216300
     11 C3           0.3450    -0.0340     0.1060 ca         1 C09      -0.033200
     12 C2           1.5220    -0.8250     0.0990 ca         1 C09      -0.167300
     13 C9           1.5730    -2.2170     0.2680 ca         1 C09      -0.096000
     14 C10          2.7810    -2.8730     0.2450 ca         1 C09      -0.149000
     15 C11          3.9650    -2.1460     0.0520 ca         1 C09      -0.109000
     16 C12          3.9320    -0.7820    -0.1160 ca         1 C09      -0.186300
     17 C1           2.7120    -0.0750    -0.0990 ca         1 C09       0.468600
     18 N1           2.7480     1.2780    -0.2680 nb         1 C09      -0.790000
     19 H1           0.8770     3.8620    -0.2270 hn         1 C09       0.432800
     20 H2           2.5720     3.7690    -0.4020 hn         1 C09       0.432800
     21 H4          -3.3730     1.0350     1.4100 h1         1 C09       0.050700
     22 H5          -3.5260     1.7840    -0.1790 h1         1 C09       0.050700
     23 H6          -5.2810    -0.3220     1.1780 h1         1 C09       0.025700
     24 H7          -5.6150     0.4270    -0.3840 h1         1 C09       0.025700
     25 H8          -5.0760    -2.5610     0.0640 hc         1 C09       0.046033
     26 H9          -6.6440    -1.8180    -0.2460 hc         1 C09       0.046033
     27 H10         -5.4100    -1.8110    -1.5040 hc         1 C09       0.046033
     28 H12          0.6570    -2.7760     0.4180 ha         1 C09       0.120000
     29 H13          2.8180    -3.9470     0.3730 ha         1 C09       0.130000
     30 H14          4.9150    -2.6650     0.0360 ha         1 C09       0.131000
     31 H15          4.8460    -0.2220    -0.2680 ha         1 C09       0.146000
     32 H3          -1.3850    -1.2380     0.4070 hn         1 C09       0.320700
@<TRIPOS>BOND
     1     1     2 1   
     2     1    19 1   
     3     1    20 1   
     4     2     3 ar  
     5     2    18 ar  
     6     3     4 1   
     7     3    11 ar  
     8     4     5 2   
     9     5     6 1   
    10     5    10 1   
    11     6     7 1   
    12     6    21 1   
    13     6    22 1   
    14     7     8 1   
    15     8     9 1   
    16     8    23 1   
    17     8    24 1   
    18     9    25 1   
    19     9    26 1   
    20     9    27 1   
    21    10    11 1   
    22    10    32 1   
    23    11    12 ar  
    24    12    13 ar  
    25    12    17 ar  
    26    13    14 ar  
    27    13    28 1   
    28    14    15 ar  
    29    14    29 1   
    30    15    16 ar  
    31    15    30 1   
    32    16    17 ar  
    33    16    31 1   
    34    17    18 ar  
@<TRIPOS>SUBSTRUCTURE
     1 C09         1 TEMP              0 ****  ****    0 ROOT
