@<TRIPOS>MOLECULE
C0A
   39    39     1     0     0
SMALL
bcc


@<TRIPOS>ATOM
      1 C01          6.2800    -2.6790    -1.1860 c3         1 C0A       0.095300
      2 N02          5.0000    -2.2020    -0.7150 ns         1 C0A      -0.568900
      3 C03          4.5830    -0.9510    -0.9160 c          1 C0A       0.621100
      4 O04          5.2470    -0.0970    -1.4860 o          1 C0A      -0.627100
      5 C05          3.1680    -0.6410    -0.4240 c3         1 C0A       0.135500
      6 C06          2.1880    -0.8150    -1.5960 c3         1 C0A       0.004900
      7 C07          0.7600    -0.6710    -1.1600 ca         1 C0A      -0.140300
      8 C08          0.0500    -1.7600    -0.6730 ca         1 C0A      -0.141000
      9 C09         -1.2630    -1.6210    -0.2550 ca         1 C0A      -0.056000
     10 C10         -1.9260    -0.3970    -0.3020 ca         1 C0A      -0.008300
     11 C11         -3.3650    -0.2970     0.1470 c3         1 C0A       0.350700
     12 F12         -3.4120     0.6460     1.1590 f          1 C0A      -0.270800
     13 F13         -4.0770     0.2720    -0.8940 f          1 C0A      -0.270800
     14 P14         -4.3170    -1.8370     0.7170 p5         1 C0A       1.107700
     15 O15         -3.5120    -2.3420     1.9110 o          1 C0A      -0.900500
     16 O16         -5.6830    -1.2520     1.0650 o          1 C0A      -0.900500
     17 O17         -4.2960    -2.7390    -0.5120 o          1 C0A      -0.900500
     18 C18         -1.1930     0.6920    -0.7860 ca         1 C0A      -0.000900
     19 BR1         -1.9230     2.4390    -0.9010 br         1 C0A      -0.141100
     20 C20          0.1210     0.5620    -1.2090 ca         1 C0A      -0.121000
     21 N21          3.0760     0.7130     0.0830 n7         1 C0A      -0.775100
     22 S22          3.3820     1.0390     1.6680 s6         1 C0A       1.224900
     23 C23          5.0930     0.6480     1.9680 c3         1 C0A      -0.288300
     24 O24          3.2080     2.4740     1.8230 o          1 C0A      -0.588300
     25 O25          2.5730     0.1280     2.4630 o          1 C0A      -0.588300
     26 H1           7.1060    -2.1590    -0.6980 h1         1 C0A       0.035700
     27 H2           6.3580    -3.7370    -0.9580 h1         1 C0A       0.035700
     28 H3           6.3800    -2.5490    -2.2630 h1         1 C0A       0.035700
     29 H4           4.4120    -2.8400    -0.2030 hn         1 C0A       0.329500
     30 H5           2.8780    -1.3300     0.3730 h1         1 C0A       0.097700
     31 H6           2.4290    -0.0840    -2.3710 hc         1 C0A       0.041700
     32 H7           2.3440    -1.8040    -2.0310 hc         1 C0A       0.041700
     33 H8           0.5230    -2.7340    -0.6240 ha         1 C0A       0.101000
     34 H9          -1.7860    -2.4860     0.1230 ha         1 C0A       0.208000
     35 H12          0.6580     1.4220    -1.5870 ha         1 C0A       0.109000
     36 H13          3.4720     1.4120    -0.5380 hn         1 C0A       0.436800
     37 H14          5.7190     1.2410     1.3060 h1         1 C0A       0.092033
     38 H15          5.3130     0.8880     3.0070 h1         1 C0A       0.092033
     39 H16          5.2600    -0.4140     1.7990 h1         1 C0A       0.092033
@<TRIPOS>BOND
     1     1     2 1   
     2     1    26 1   
     3     1    27 1   
     4     1    28 1   
     5     2     3 1   
     6     2    29 1   
     7     3     4 2   
     8     3     5 1   
     9     5     6 1   
    10     5    21 1   
    11     5    30 1   
    12     6     7 1   
    13     6    31 1   
    14     6    32 1   
    15     7     8 ar  
    16     7    20 ar  
    17     8     9 ar  
    18     8    33 1   
    19     9    10 ar  
    20     9    34 1   
    21    10    11 1   
    22    10    18 ar  
    23    11    12 1   
    24    11    13 1   
    25    11    14 1   
    26    14    15 1   
    27    14    16 1   
    28    14    17 1   
    29    18    19 1   
    30    18    20 ar  
    31    20    35 1   
    32    21    22 1   
    33    21    36 1   
    34    22    23 1   
    35    22    24 2   
    36    22    25 2   
    37    23    37 1   
    38    23    38 1   
    39    23    39 1   
@<TRIPOS>SUBSTRUCTURE
     1 C0A         1 TEMP              0 ****  ****    0 ROOT
