@<TRIPOS>MOLECULE
C0A
   39    39     1     0     0
SMALL
No Charge or Current Charge


@<TRIPOS>ATOM
      1 C01          6.3460    -2.8210    -0.7190 c3         1 C0A       0.095300
      2 N02          5.0250    -2.2840    -0.3880 ns         1 C0A      -0.501900
      3 C03          4.5120    -1.1130    -0.9080 c          1 C0A       0.554100
      4 O04          5.1510    -0.4290    -1.6980 o          1 C0A      -0.627100
      5 C05          3.0860    -0.7120    -0.4060 c3         1 C0A       0.135500
      6 C06          2.1050    -0.6230    -1.6030 c3         1 C0A       0.004900
      7 C07          0.6420    -0.5220    -1.1760 ca         1 C0A      -0.140300
      8 C08         -0.0630    -1.6690    -0.7830 ca         1 C0A      -0.123000
      9 C09         -1.4100    -1.5830    -0.3920 ca         1 C0A      -0.038000
     10 C10         -2.0950    -0.3420    -0.3810 ca         1 C0A      -0.008300
     11 C11         -3.5800    -0.2410     0.0480 c3         1 C0A      -0.049700
     12 F12         -3.7000     0.6100     1.1010 f          1 C0A      -0.149500
     13 F13         -4.3160     0.3010    -0.9580 f          1 C0A      -0.149500
     14 P14         -4.4960    -1.8280     0.5580 p5         1 C0A       1.265500
     15 O15         -3.8130    -2.4470     1.7340 o          1 C0A      -0.900500
     16 O16         -5.9090    -1.5060     0.9250 o          1 C0A      -0.900500
     17 O17         -4.4950    -2.7960    -0.5800 o          1 C0A      -0.900500
     18 C18         -1.3660     0.8140    -0.7810 ca         1 C0A      -0.000900
     19 Br1         -2.1430     2.5770    -0.8180 br         1 C0A      -0.141100
     20 C20         -0.0190     0.7160    -1.1720 ca         1 C0A      -0.103000
     21 N21          3.0530     0.5700     0.3750 n7         1 C0A      -0.830300
     22 S22          3.8270     0.6880     1.8490 s6         1 C0A       1.194100
     23 C23          5.5220     1.0260     1.4010 c3         1 C0A      -0.399100
     24 O24          3.2470     1.8470     2.5290 o          1 C0A      -0.517500
     25 O25          3.7620    -0.6400     2.4630 o          1 C0A      -0.517500
     26 H1           7.1210    -2.0990    -0.4300 h1         1 C0A       0.035700
     27 H2           6.5060    -3.7610    -0.1740 h1         1 C0A       0.035700
     28 H3           6.4080    -3.0130    -1.7980 h1         1 C0A       0.035700
     29 H4           4.4510    -2.7900     0.2780 hn         1 C0A       0.329500
     30 H5           2.7290    -1.5380     0.2240 h1         1 C0A       0.097700
     31 H6           2.3800     0.2280    -2.2380 hc         1 C0A       0.041700
     32 H7           2.2340    -1.5150    -2.2280 hc         1 C0A       0.041700
     33 H8           0.4320    -2.6380    -0.7800 ha         1 C0A       0.083000
     34 H9          -1.9050    -2.5030    -0.0980 ha         1 C0A       0.190000
     35 H12          0.5170     1.6140    -1.4700 ha         1 C0A       0.091000
     36 H13          3.5400     1.2850    -0.1630 hn         1 C0A       0.492000
     37 H14          5.5400     1.9110     0.7570 h1         1 C0A       0.092033
     38 H15          6.0670     1.2150     2.3320 h1         1 C0A       0.092033
     39 H16          5.9340     0.1490     0.8940 h1         1 C0A       0.092033
@<TRIPOS>BOND
     1     1     2 1   
     2     1    26 1   
     3     1    27 1   
     4     1    28 1   
     5     2     3 1   
     6     2    29 1   
     7     3     4 2   
     8     3     5 1   
     9     5     6 1   
    10     5    21 1   
    11     5    30 1   
    12     6     7 1   
    13     6    31 1   
    14     6    32 1   
    15     7     8 ar  
    16     7    20 ar  
    17     8     9 ar  
    18     8    33 1   
    19     9    10 ar  
    20     9    34 1   
    21    10    11 1   
    22    10    18 ar  
    23    11    12 1   
    24    11    13 1   
    25    11    14 1   
    26    14    15 1   
    27    14    16 1   
    28    14    17 1   
    29    18    19 1   
    30    18    20 ar  
    31    20    35 1   
    32    21    22 1   
    33    21    36 1   
    34    22    23 1   
    35    22    24 2   
    36    22    25 2   
    37    23    37 1   
    38    23    38 1   
    39    23    39 1   
@<TRIPOS>SUBSTRUCTURE
     1 C0A         1 TEMP              0 ****  ****    0 ROOT
