@<TRIPOS>MOLECULE
C0C
   63    66     1     0     0
SMALL
abcg2


@<TRIPOS>ATOM
      1 O13         -3.2810    -5.3470    33.5080 o          1 C0C      -0.590100
      2 C01         -9.2300    -7.1560    30.1670 c3         1 C0C       0.094300
      3 C05         -7.7220    -4.2640    32.0690 ca         1 C0C      -0.146600
      4 C06         -8.1030    -3.4720    33.1480 ca         1 C0C      -0.057000
      5 C16         -2.4740    -3.5460    35.9750 c5         1 C0C      -0.083400
      6 C23          1.7090    -7.1150    33.2700 c5         1 C0C      -0.064900
      7 C24          2.7920    -7.9590    33.9300 c5         1 C0C      -0.080900
      8 C25          3.0160    -7.2920    35.2970 c5         1 C0C      -0.080900
      9 C28         -1.1570    -8.2970    33.8780 ca         1 C0C      -0.094500
     10 C27         -0.1010    -7.9810    34.7340 ca         1 C0C      -0.073300
     11 C26          1.7720    -6.4150    35.5520 c5         1 C0C      -0.064900
     12 C33          0.1510    -8.8410    35.7980 ca         1 C0C      -0.094500
     13 C34         -6.4000    -4.2290    31.6310 ca         1 C0C      -0.073000
     14 N02         -8.3370    -6.2550    30.8560 ns         1 C0C      -0.504900
     15 O04         -9.9340    -4.7490    31.3560 o          1 C0C      -0.602100
     16 C07         -7.1630    -2.6830    33.7920 ca         1 C0C      -0.120000
     17 C08         -5.8480    -2.6550    33.3490 ca         1 C0C      -0.083000
     18 C09         -5.4570    -3.4240    32.2580 ca         1 C0C      -0.103300
     19 C10         -4.0480    -3.3590    31.7170 c3         1 C0C       0.155300
     20 N11         -3.0380    -3.2430    32.7390 ns         1 C0C      -0.504900
     21 C12         -2.7440    -4.2540    33.5730 c          1 C0C       0.602100
     22 C14         -1.7450    -3.8940    34.6670 c5         1 C0C       0.027700
     23 C17         -2.4990    -4.8660    36.7360 c5         1 C0C      -0.095400
     24 C18         -1.1470    -5.4750    36.3970 c5         1 C0C       0.110000
     25 N19         -0.9240    -5.0370    35.0220 n          1 C0C      -0.395800
     26 C20         -0.1240    -5.5660    34.0770 c          1 C0C       0.620100
     27 O21         -0.1050    -5.0810    32.9520 o          1 C0C      -0.612100
     28 C22          0.7610    -6.7630    34.4360 c5         1 C0C      -0.075700
     29 C29         -1.9420    -9.4210    34.0780 ca         1 C0C      -0.104000
     30 C30         -1.6650   -10.2550    35.1500 ca         1 C0C       0.120000
     31 CL31        -2.6370   -11.6670    35.4080 cl         1 C0C      -0.207000
     32 C32         -0.6210    -9.9750    36.0120 ca         1 C0C      -0.104000
     33 H1          -8.6430    -7.9730    29.7580 h1         1 C0C       0.040033
     34 H2          -9.9850    -7.5750    30.8340 h1         1 C0C       0.040033
     35 H3          -9.7400    -6.6560    29.3450 h1         1 C0C       0.040033
     36 H4          -9.1290    -3.4840    33.4930 ha         1 C0C       0.134000
     37 H5          -1.8920    -2.8030    36.5230 hc         1 C0C       0.055700
     38 H6          -3.4630    -3.1220    35.8030 hc         1 C0C       0.055700
     39 H7           2.1490    -6.1980    32.8740 hc         1 C0C       0.054450
     40 H8           1.2020    -7.6180    32.4470 hc         1 C0C       0.054450
     41 H9           2.4510    -8.9890    34.0540 hc         1 C0C       0.044950
     42 H10          3.7010    -7.9990    33.3280 hc         1 C0C       0.044950
     43 H11          3.1600    -8.0330    36.0850 hc         1 C0C       0.044950
     44 H12          3.9140    -6.6730    35.2870 hc         1 C0C       0.044950
     45 H13         -1.3790    -7.6620    33.0300 ha         1 C0C       0.127000
     46 H14          2.0390    -5.3600    35.4620 hc         1 C0C       0.054450
     47 H15          1.3710    -6.5420    36.5570 hc         1 C0C       0.054450
     48 H16          0.9570    -8.6430    36.4920 ha         1 C0C       0.127000
     49 H17         -6.0900    -4.8150    30.7730 ha         1 C0C       0.113000
     50 H18         -7.3960    -6.5660    31.0270 hn         1 C0C       0.320500
     51 H19         -7.4580    -2.0810    34.6410 ha         1 C0C       0.116000
     52 H20         -5.1260    -2.0290    33.8580 ha         1 C0C       0.108000
     53 H21         -3.8560    -4.2320    31.0910 h1         1 C0C       0.058200
     54 H22         -3.9490    -2.4860    31.0710 h1         1 C0C       0.058200
     55 H23         -2.5430    -2.3710    32.8230 hn         1 C0C       0.317500
     56 H24         -1.1220    -3.0590    34.3360 h1         1 C0C       0.068700
     57 H25         -2.6320    -4.7360    37.8090 hc         1 C0C       0.066200
     58 H26         -3.3040    -5.5060    36.3710 hc         1 C0C       0.066200
     59 H27         -1.1470    -6.5600    36.4800 h1         1 C0C       0.052700
     60 H28         -0.3700    -5.0840    37.0590 h1         1 C0C       0.052700
     61 H29         -2.7570    -9.6410    33.4020 ha         1 C0C       0.129500
     62 H30         -0.4040   -10.6290    36.8460 ha         1 C0C       0.129500
     63 C03         -8.7630    -5.1030    31.3970 c          1 C0C       0.609700
@<TRIPOS>BOND
     1     1    21 2   
     2     2    14 1   
     3     2    33 1   
     4     2    34 1   
     5     2    35 1   
     6     3     4 ar  
     7     3    13 ar  
     8     3    63 1   
     9     4    16 ar  
    10     4    36 1   
    11     5    22 1   
    12     5    23 1   
    13     5    37 1   
    14     5    38 1   
    15     6     7 1   
    16     6    28 1   
    17     6    39 1   
    18     6    40 1   
    19     7     8 1   
    20     7    41 1   
    21     7    42 1   
    22     8    11 1   
    23     8    43 1   
    24     8    44 1   
    25     9    10 ar  
    26     9    29 ar  
    27     9    45 1   
    28    10    12 ar  
    29    10    28 1   
    30    11    28 1   
    31    11    46 1   
    32    11    47 1   
    33    12    32 ar  
    34    12    48 1   
    35    13    18 ar  
    36    13    49 1   
    37    14    50 1   
    38    14    63 1   
    39    15    63 2   
    40    16    17 ar  
    41    16    51 1   
    42    17    18 ar  
    43    17    52 1   
    44    18    19 1   
    45    19    20 1   
    46    19    53 1   
    47    19    54 1   
    48    20    21 1   
    49    20    55 1   
    50    21    22 1   
    51    22    25 1   
    52    22    56 1   
    53    23    24 1   
    54    23    57 1   
    55    23    58 1   
    56    24    25 1   
    57    24    59 1   
    58    24    60 1   
    59    25    26 1   
    60    26    27 2   
    61    26    28 1   
    62    29    30 ar  
    63    29    61 1   
    64    30    31 1   
    65    30    32 ar  
    66    32    62 1   
@<TRIPOS>SUBSTRUCTURE
     1 C0C         1 TEMP              0 ****  ****    0 ROOT
