@<TRIPOS>MOLECULE
C0C
   63    66     1     0     0
SMALL
No Charge or Current Charge


@<TRIPOS>ATOM
      1 O13         -2.9240    -5.1060    32.4710 o          1 C0C      -0.590100
      2 C01         -7.9220    -7.9370    32.5850 c3         1 C0C       0.094300
      3 C05         -7.4990    -4.0990    32.5890 ca         1 C0C      -0.146600
      4 C06         -8.2100    -2.9150    32.8900 ca         1 C0C      -0.057000
      5 C16         -2.7570    -3.7250    35.6210 c5         1 C0C      -0.083400
      6 C23          2.0630    -7.1260    33.6390 c5         1 C0C      -0.064900
      7 C24          2.8200    -8.1530    34.5130 c5         1 C0C      -0.080900
      8 C25          2.7170    -7.5040    35.9190 c5         1 C0C      -0.080900
      9 C28         -0.9480    -8.1370    33.0570 ca         1 C0C      -0.094500
     10 C27         -0.1600    -8.1020    34.2310 ca         1 C0C      -0.073300
     11 C26          1.3290    -6.7800    35.9410 c5         1 C0C      -0.064900
     12 C33         -0.2600    -9.1990    35.1260 ca         1 C0C      -0.094500
     13 C34         -6.1560    -3.9860    32.1500 ca         1 C0C      -0.073000
     14 N02         -7.4290    -6.5620    32.4820 ns         1 C0C      -0.504900
     15 O04         -9.3560    -5.5390    33.0920 o          1 C0C      -0.602100
     16 C07         -7.5960    -1.6580    32.7630 ca         1 C0C      -0.120000
     17 C08         -6.2640    -1.5620    32.3340 ca         1 C0C      -0.083000
     18 C09         -5.5390    -2.7260    32.0240 ca         1 C0C      -0.103300
     19 C10         -4.0890    -2.6300    31.5710 c3         1 C0C       0.155300
     20 N11         -3.1750    -2.8400    32.6930 ns         1 C0C      -0.504900
     21 C12         -2.6960    -4.0710    33.0860 c          1 C0C       0.602100
     22 C14         -1.8310    -3.9030    34.3780 c5         1 C0C       0.027700
     23 C17         -3.0560    -5.1910    36.0130 c5         1 C0C      -0.095400
     24 C18         -1.6500    -5.8330    35.9180 c5         1 C0C       0.110000
     25 N19         -1.0640    -5.1270    34.7500 n          1 C0C      -0.395800
     26 C20          0.1010    -5.5030    34.0270 c          1 C0C       0.620100
     27 O21          0.5060    -4.7990    33.1070 o          1 C0C      -0.612100
     28 C22          0.7590    -6.8690    34.4710 c5         1 C0C      -0.075700
     29 C29         -1.8150    -9.2100    32.7920 ca         1 C0C      -0.104000
     30 C30         -1.9050   -10.2780    33.6940 ca         1 C0C       0.120000
     31 Cl31        -2.9900   -11.6220    33.3630 cl         1 C0C      -0.207000
     32 C32         -1.1260   -10.2740    34.8580 ca         1 C0C      -0.104000
     33 H1          -7.1160    -8.6350    32.3250 h1         1 C0C       0.040033
     34 H2          -8.2540    -8.1350    33.6130 h1         1 C0C       0.040033
     35 H3          -8.7630    -8.0810    31.8950 h1         1 C0C       0.040033
     36 H4          -9.2430    -2.9660    33.2280 ha         1 C0C       0.134000
     37 H5          -2.2280    -3.2060    36.4290 hc         1 C0C       0.055700
     38 H6          -3.6660    -3.1490    35.4110 hc         1 C0C       0.055700
     39 H7           2.6630    -6.2140    33.5260 hc         1 C0C       0.054450
     40 H8           1.8610    -7.5010    32.6290 hc         1 C0C       0.054450
     41 H9           2.3600    -9.1470    34.4810 hc         1 C0C       0.044950
     42 H10          3.8610    -8.2790    34.1940 hc         1 C0C       0.044950
     43 H11          2.8070    -8.2490    36.7180 hc         1 C0C       0.044950
     44 H12          3.5280    -6.7820    36.0700 hc         1 C0C       0.044950
     45 H13         -0.8970    -7.3230    32.3370 ha         1 C0C       0.127000
     46 H14          1.4800    -5.7330    36.2320 hc         1 C0C       0.054450
     47 H15          0.6580    -7.1920    36.7020 hc         1 C0C       0.054450
     48 H16          0.3360    -9.2460    36.0320 ha         1 C0C       0.127000
     49 H17         -5.5750    -4.8700    31.9050 ha         1 C0C       0.113000
     50 H18         -6.4670    -6.4120    32.2080 hn         1 C0C       0.320500
     51 H19         -8.1550    -0.7560    33.0010 ha         1 C0C       0.116000
     52 H20         -5.7960    -0.5840    32.2440 ha         1 C0C       0.108000
     53 H21         -3.8900    -3.3730    30.7870 h1         1 C0C       0.058200
     54 H22         -3.8970    -1.6370    31.1430 h1         1 C0C       0.058200
     55 H23         -2.9250    -2.0420    33.2650 hn         1 C0C       0.317500
     56 H24         -1.1710    -3.0350    34.2450 h1         1 C0C       0.068700
     57 H25         -3.4900    -5.2840    37.0150 hc         1 C0C       0.066200
     58 H26         -3.7540    -5.6600    35.3090 hc         1 C0C       0.066200
     59 H27         -1.7310    -6.9170    35.7850 h1         1 C0C       0.052700
     60 H28         -1.0680    -5.6290    36.8260 h1         1 C0C       0.052700
     61 H29         -2.4160    -9.2140    31.8860 ha         1 C0C       0.129500
     62 H30         -1.1900   -11.1060    35.5540 ha         1 C0C       0.129500
     63 C03         -8.1860    -5.4410    32.7470 c          1 C0C       0.609700
@<TRIPOS>BOND
     1     1    21 2   
     2     2    14 1   
     3     2    33 1   
     4     2    34 1   
     5     2    35 1   
     6     3     4 ar  
     7     3    13 ar  
     8     3    63 1   
     9     4    16 ar  
    10     4    36 1   
    11     5    22 1   
    12     5    23 1   
    13     5    37 1   
    14     5    38 1   
    15     6     7 1   
    16     6    28 1   
    17     6    39 1   
    18     6    40 1   
    19     7     8 1   
    20     7    41 1   
    21     7    42 1   
    22     8    11 1   
    23     8    43 1   
    24     8    44 1   
    25     9    10 ar  
    26     9    29 ar  
    27     9    45 1   
    28    10    12 ar  
    29    10    28 1   
    30    11    28 1   
    31    11    46 1   
    32    11    47 1   
    33    12    32 ar  
    34    12    48 1   
    35    13    18 ar  
    36    13    49 1   
    37    14    50 1   
    38    14    63 1   
    39    15    63 2   
    40    16    17 ar  
    41    16    51 1   
    42    17    18 ar  
    43    17    52 1   
    44    18    19 1   
    45    19    20 1   
    46    19    53 1   
    47    19    54 1   
    48    20    21 1   
    49    20    55 1   
    50    21    22 1   
    51    22    25 1   
    52    22    56 1   
    53    23    24 1   
    54    23    57 1   
    55    23    58 1   
    56    24    25 1   
    57    24    59 1   
    58    24    60 1   
    59    25    26 1   
    60    26    27 2   
    61    26    28 1   
    62    29    30 ar  
    63    29    61 1   
    64    30    31 1   
    65    30    32 ar  
    66    32    62 1   
@<TRIPOS>SUBSTRUCTURE
     1 C0C         1 TEMP              0 ****  ****    0 ROOT
