@<TRIPOS>MOLECULE
C0D
   47    46     1     0     0
SMALL
No Charge or Current Charge


@<TRIPOS>ATOM
      1 CAP          5.9760     1.5810    -0.1240 c3         1 C0D      -0.086767
      2 CAW          4.5030     1.2190     0.2220 c3         1 C0D      -0.068000
      3 CAB          4.2210     1.6210     1.6980 c3         1 C0D      -0.086767
      4 CAC          3.5760     2.0580    -0.7030 c3         1 C0D      -0.086767
      5 CAV          4.2620    -0.3180    -0.0260 c3         1 C0D       0.106300
      6 OAG          5.1280    -1.1120     0.8250 oh         1 C0D      -0.646000
      7 CAU          2.7670    -0.7570     0.1340 c          1 C0D       0.566100
      8 OAE          2.2710    -1.0290     1.2220 o          1 C0D      -0.610100
      9 NAR          2.0550    -0.8950    -1.0420 ns         1 C0D      -0.502900
     10 CAN          0.6390    -1.2620    -1.1200 c3         1 C0D       0.113000
     11 CAO         -0.2740    -0.0640    -0.8020 c3         1 C0D      -0.180400
     12 CAT         -1.7420    -0.4740    -0.8830 c          1 C0D       0.600100
     13 OAD         -2.3070    -0.6790    -1.9470 o          1 C0D      -0.597100
     14 NAQ         -2.3880    -0.5700     0.3290 ns         1 C0D      -0.507900
     15 CAM         -3.8040    -0.9050     0.4990 c3         1 C0D       0.104000
     16 CAL         -4.7240     0.3030     0.2290 c3         1 C0D      -0.094400
     17 CAK         -6.2200    -0.0260     0.4250 c3         1 C0D      -0.074400
     18 CAJ         -7.1440     1.1820     0.1560 c3         1 C0D      -0.074400
     19 CAA         -8.6370     0.8540     0.3520 c3         1 C0D      -0.089100
     20 H1           6.2150     1.3070    -1.1590 hc         1 C0D       0.038256
     21 H2           6.1530     2.6580    -0.0120 hc         1 C0D       0.038256
     22 H3           6.6810     1.0610     0.5350 hc         1 C0D       0.038256
     23 H4           4.8700     1.0770     2.3950 hc         1 C0D       0.038256
     24 H5           4.4020     2.6930     1.8500 hc         1 C0D       0.038256
     25 H6           3.1790     1.4230     1.9760 hc         1 C0D       0.038256
     26 H7           2.5180     1.9100    -0.4530 hc         1 C0D       0.038256
     27 H8           3.7880     3.1290    -0.6030 hc         1 C0D       0.038256
     28 H9           3.7190     1.7850    -1.7560 hc         1 C0D       0.038256
     29 H10          4.5250    -0.5210    -1.0730 h1         1 C0D       0.068700
     30 H11          4.6580    -1.2100     1.6850 ho         1 C0D       0.468000
     31 H12          2.5450    -0.6840    -1.9040 hn         1 C0D       0.313500
     32 H13          0.4260    -1.6310    -2.1320 h1         1 C0D       0.070700
     33 H14          0.4390    -2.0810    -0.4140 h1         1 C0D       0.070700
     34 H15         -0.0390     0.3040     0.2030 hc         1 C0D       0.058700
     35 H16         -0.0840     0.7230    -1.5410 hc         1 C0D       0.058700
     36 H17         -1.8360    -0.3760     1.1560 hn         1 C0D       0.311500
     37 H18         -4.0630    -1.7280    -0.1820 h1         1 C0D       0.054200
     38 H19         -3.9570    -1.2580     1.5270 h1         1 C0D       0.054200
     39 H20         -4.4430     1.1240     0.9000 hc         1 C0D       0.041700
     40 H21         -4.5650     0.6580    -0.7970 hc         1 C0D       0.041700
     41 H22         -6.4990    -0.8490    -0.2450 hc         1 C0D       0.043200
     42 H23         -6.3790    -0.3800     1.4510 hc         1 C0D       0.043200
     43 H24         -6.8700     2.0060     0.8250 hc         1 C0D       0.036700
     44 H25         -6.9890     1.5370    -0.8700 hc         1 C0D       0.036700
     45 H26         -9.2520     1.7390     0.1500 hc         1 C0D       0.033367
     46 H27         -8.9520     0.0550    -0.3300 hc         1 C0D       0.033367
     47 H28         -8.8320     0.5290     1.3810 hc         1 C0D       0.033367
@<TRIPOS>BOND
     1     1     2 1   
     2     1    20 1   
     3     1    21 1   
     4     1    22 1   
     5     2     3 1   
     6     2     4 1   
     7     2     5 1   
     8     3    23 1   
     9     3    24 1   
    10     3    25 1   
    11     4    26 1   
    12     4    27 1   
    13     4    28 1   
    14     5     6 1   
    15     5     7 1   
    16     5    29 1   
    17     6    30 1   
    18     7     8 2   
    19     7     9 1   
    20     9    10 1   
    21     9    31 1   
    22    10    11 1   
    23    10    32 1   
    24    10    33 1   
    25    11    12 1   
    26    11    34 1   
    27    11    35 1   
    28    12    13 2   
    29    12    14 1   
    30    14    15 1   
    31    14    36 1   
    32    15    16 1   
    33    15    37 1   
    34    15    38 1   
    35    16    17 1   
    36    16    39 1   
    37    16    40 1   
    38    17    18 1   
    39    17    41 1   
    40    17    42 1   
    41    18    19 1   
    42    18    43 1   
    43    18    44 1   
    44    19    45 1   
    45    19    46 1   
    46    19    47 1   
@<TRIPOS>SUBSTRUCTURE
     1 C0D         1 TEMP              0 ****  ****    0 ROOT
