@<TRIPOS>MOLECULE
C0D
   47    46     1     0     0
SMALL
bcc


@<TRIPOS>ATOM
      1 CAP          5.9740     1.8560    -0.3250 c3         1 C0D      -0.086767
      2 CAW          4.7660     1.1920     0.3420 c3         1 C0D      -0.068000
      3 CAB          5.1140     0.8610     1.7940 c3         1 C0D      -0.086767
      4 CAC          3.5980     2.1790     0.3160 c3         1 C0D      -0.086767
      5 CAV          4.4200    -0.0830    -0.4720 c3         1 C0D       0.083100
      6 OAG          5.4830    -0.9980    -0.5090 oh         1 C0D      -0.583800
      7 CAU          3.1810    -0.8090     0.0500 c          1 C0D       0.633100
      8 OAE          3.2820    -1.6520     0.9350 o          1 C0D      -0.610100
      9 NAR          2.0120    -0.4850    -0.5090 ns         1 C0D      -0.569900
     10 CAN          0.7580    -1.0740    -0.0840 c3         1 C0D       0.113000
     11 CAO         -0.3980    -0.4290    -0.8300 c3         1 C0D      -0.180400
     12 CAT         -1.7230    -1.0580    -0.4480 c          1 C0D       0.667100
     13 OAD         -1.8300    -2.2560    -0.2210 o          1 C0D      -0.597100
     14 NAQ         -2.7640    -0.2180    -0.4020 ns         1 C0D      -0.574900
     15 CAM         -4.1090    -0.6490    -0.0750 c3         1 C0D       0.104000
     16 CAL         -5.0990     0.4910    -0.2470 c3         1 C0D      -0.094400
     17 CAK         -6.5120     0.0810     0.1460 c3         1 C0D      -0.074400
     18 CAJ         -7.5260     1.2050    -0.0210 c3         1 C0D      -0.074400
     19 CAA         -8.9320     0.7940     0.3920 c3         1 C0D      -0.089100
     20 H1           5.7500     2.1450    -1.3550 hc         1 C0D       0.038256
     21 H2           6.2520     2.7610     0.2170 hc         1 C0D       0.038256
     22 H3           6.8430     1.1980    -0.3420 hc         1 C0D       0.038256
     23 H4           5.9420     0.1540     1.8690 hc         1 C0D       0.038256
     24 H5           5.4250     1.7700     2.3120 hc         1 C0D       0.038256
     25 H6           4.2660     0.4510     2.3420 hc         1 C0D       0.038256
     26 H7           2.7250     1.8140     0.8580 hc         1 C0D       0.038256
     27 H8           3.9000     3.1170     0.7860 hc         1 C0D       0.038256
     28 H9           3.2870     2.4150    -0.7050 hc         1 C0D       0.038256
     29 H10          4.2410     0.2320    -1.5070 h1         1 C0D       0.068700
     30 H11          5.4490    -1.5170     0.3040 ho         1 C0D       0.429000
     31 H12          2.0010     0.1740    -1.2700 hn         1 C0D       0.313500
     32 H13          0.7690    -2.1490    -0.2670 h1         1 C0D       0.070700
     33 H14          0.6340    -0.9300     0.9920 h1         1 C0D       0.070700
     34 H15         -0.4120     0.6490    -0.6500 hc         1 C0D       0.058700
     35 H16         -0.2670    -0.5650    -1.9090 hc         1 C0D       0.058700
     36 H17         -2.6040     0.7650    -0.5500 hn         1 C0D       0.311500
     37 H18         -4.3930    -1.4860    -0.7180 h1         1 C0D       0.054200
     38 H19         -4.1440    -1.0170     0.9550 h1         1 C0D       0.054200
     39 H20         -4.7840     1.3440     0.3640 hc         1 C0D       0.041700
     40 H21         -5.0890     0.8300    -1.2880 hc         1 C0D       0.041700
     41 H22         -6.8240    -0.7810    -0.4540 hc         1 C0D       0.043200
     42 H23         -6.5140    -0.2570     1.1880 hc         1 C0D       0.043200
     43 H24         -7.2070     2.0710     0.5690 hc         1 C0D       0.036700
     44 H25         -7.5320     1.5350    -1.0640 hc         1 C0D       0.036700
     45 H26         -9.6440     1.6100     0.2560 hc         1 C0D       0.033367
     46 H27         -9.2840    -0.0520    -0.2000 hc         1 C0D       0.033367
     47 H28         -8.9660     0.4970     1.4420 hc         1 C0D       0.033367
@<TRIPOS>BOND
     1     1     2 1   
     2     1    20 1   
     3     1    21 1   
     4     1    22 1   
     5     2     3 1   
     6     2     4 1   
     7     2     5 1   
     8     3    23 1   
     9     3    24 1   
    10     3    25 1   
    11     4    26 1   
    12     4    27 1   
    13     4    28 1   
    14     5     6 1   
    15     5     7 1   
    16     5    29 1   
    17     6    30 1   
    18     7     8 2   
    19     7     9 1   
    20     9    10 1   
    21     9    31 1   
    22    10    11 1   
    23    10    32 1   
    24    10    33 1   
    25    11    12 1   
    26    11    34 1   
    27    11    35 1   
    28    12    13 2   
    29    12    14 1   
    30    14    15 1   
    31    14    36 1   
    32    15    16 1   
    33    15    37 1   
    34    15    38 1   
    35    16    17 1   
    36    16    39 1   
    37    16    40 1   
    38    17    18 1   
    39    17    41 1   
    40    17    42 1   
    41    18    19 1   
    42    18    43 1   
    43    18    44 1   
    44    19    45 1   
    45    19    46 1   
    46    19    47 1   
@<TRIPOS>SUBSTRUCTURE
     1 C0D         1 TEMP              0 ****  ****    0 ROOT
