@<TRIPOS>MOLECULE
C0E
   25    25     1     0     0
SMALL
bcc


@<TRIPOS>ATOM
      1 OA2         -5.7480    -0.7560     0.1840 o          1 C0E      -0.784800
      2 CA1         -4.5040    -0.8680     0.1850 c          1 C0E       0.900800
      3 OA1         -3.8200    -1.8800     0.3550 o          1 C0E      -0.784800
      4 CA2         -3.8340     0.4900    -0.0720 ce         1 C0E       0.045900
      5 OA3         -4.7160     1.4650    -0.2340 oh         1 C0E      -0.503100
      6 CA3         -2.5120     0.7640    -0.1470 cf         1 C0E      -0.039500
      7 FA3         -2.1740     2.0550    -0.3960 f          1 C0E      -0.213500
      8 CA4         -1.4260    -0.1390     0.0050 cf         1 C0E       0.042000
      9 CA5         -0.1230     0.2060    -0.0770 ce         1 C0E      -0.362200
     10 CA6          0.9220    -0.8030     0.0880 c          1 C0E       0.588900
     11 OA4          0.6620    -1.9890     0.2420 o          1 C0E      -0.560100
     12 CB1          2.3490    -0.3660     0.0550 ca         1 C0E      -0.157600
     13 CB6          3.3440    -1.3440    -0.0260 ca         1 C0E      -0.063000
     14 CB2          2.7380     0.9730     0.1220 ca         1 C0E      -0.063000
     15 CB3          4.0770     1.3320     0.1080 ca         1 C0E      -0.193500
     16 CB4          5.0270     0.3340     0.0190 ca         1 C0E       0.136900
     17 FB4          6.3210     0.6730    -0.0000 f          1 C0E      -0.154900
     18 CB5          4.6840    -1.0050    -0.0510 ca         1 C0E      -0.193500
     19 HOA3        -5.5760     0.9900    -0.1360 ho         1 C0E       0.465000
     20 HA4         -1.7030    -1.1650     0.2060 ha         1 C0E       0.185000
     21 HA5          0.1590     1.2280    -0.2830 ha         1 C0E       0.127000
     22 HB6          3.0660    -2.3890    -0.0750 ha         1 C0E       0.150500
     23 HB2          2.0070     1.7640     0.2010 ha         1 C0E       0.150500
     24 HB3          4.3720     2.3710     0.1670 ha         1 C0E       0.141500
     25 HB5          5.4500    -1.7650    -0.1200 ha         1 C0E       0.141500
@<TRIPOS>BOND
     1     1     2 1   
     2     2     3 1   
     3     2     4 1   
     4     4     5 1   
     5     4     6 2   
     6     5    19 1   
     7     6     7 1   
     8     6     8 1   
     9     8     9 2   
    10     8    20 1   
    11     9    10 1   
    12     9    21 1   
    13    10    11 2   
    14    10    12 1   
    15    12    13 ar  
    16    12    14 ar  
    17    13    18 ar  
    18    13    22 1   
    19    14    15 ar  
    20    14    23 1   
    21    15    16 ar  
    22    15    24 1   
    23    16    17 1   
    24    16    18 ar  
    25    18    25 1   
@<TRIPOS>SUBSTRUCTURE
     1 C0E         1 TEMP              0 ****  ****    0 ROOT
