@<TRIPOS>MOLECULE
C0E
   25    25     1     0     0
SMALL
No Charge or Current Charge


@<TRIPOS>ATOM
      1 OA2         -5.8680    -0.7720     0.2330 o          1 C0E      -0.679500
      2 CA1         -4.6420    -0.8030     0.2240 c          1 C0E       0.690200
      3 OA1         -4.0050    -1.8160     0.4680 o          1 C0E      -0.679500
      4 CA2         -3.9390     0.5160    -0.1160 ce         1 C0E       0.045900
      5 OA3         -4.8160     1.5470    -0.3610 oh         1 C0E      -0.542100
      6 CA3         -2.5820     0.7440    -0.1920 cf         1 C0E      -0.039500
      7 FA3         -2.1740     2.0000    -0.5120 f          1 C0E      -0.213500
      8 CA4         -1.4730    -0.1970     0.0280 cf         1 C0E      -0.008000
      9 CA5         -0.1440     0.1130    -0.0710 ce         1 C0E      -0.412200
     10 CA6          0.9700    -0.8620     0.1420 c          1 C0E       0.588900
     11 OA4          0.7050    -2.0350     0.3710 o          1 C0E      -0.560100
     12 CB1          2.4140    -0.4000     0.0870 ca         1 C0E      -0.157600
     13 CB6          3.4390    -1.3610    -0.0820 ca         1 C0E      -0.045000
     14 CB2          2.7790     0.9630     0.2220 ca         1 C0E      -0.045000
     15 CB3          4.1310     1.3470     0.1690 ca         1 C0E      -0.175500
     16 CB4          5.1300     0.3820    -0.0120 ca         1 C0E       0.172000
     17 FB4          6.4270     0.7560    -0.0610 f          1 C0E      -0.190000
     18 CB5          4.7890    -0.9700    -0.1350 ca         1 C0E      -0.175500
     19 HOA3        -5.7040     1.1280    -0.2440 ho         1 C0E       0.504000
     20 HA4         -1.7270    -1.2240     0.2920 ha         1 C0E       0.235000
     21 HA5          0.1340     1.1250    -0.3450 ha         1 C0E       0.177000
     22 HB6          3.1920    -2.4170    -0.1810 ha         1 C0E       0.132500
     23 HB2          2.0330     1.7350     0.3900 ha         1 C0E       0.132500
     24 HB3          4.4040     2.3940     0.2750 ha         1 C0E       0.123500
     25 HB5          5.5680    -1.7160    -0.2700 ha         1 C0E       0.123500
@<TRIPOS>BOND
     1     1     2 1   
     2     2     3 1   
     3     2     4 1   
     4     4     5 1   
     5     4     6 2   
     6     5    19 1   
     7     6     7 1   
     8     6     8 1   
     9     8     9 2   
    10     8    20 1   
    11     9    10 1   
    12     9    21 1   
    13    10    11 2   
    14    10    12 1   
    15    12    13 ar  
    16    12    14 ar  
    17    13    18 ar  
    18    13    22 1   
    19    14    15 ar  
    20    14    23 1   
    21    15    16 ar  
    22    15    24 1   
    23    16    17 1   
    24    16    18 ar  
    25    18    25 1   
@<TRIPOS>SUBSTRUCTURE
     1 C0E         1 TEMP              0 ****  ****    0 ROOT
