@<TRIPOS>MOLECULE
C0F
   33    34     1     0     0
SMALL
bcc


@<TRIPOS>ATOM
      1 C10          1.9980     2.1820    -0.8620 ca         1 C0F      -0.267300
      2 C13         -4.1850     0.4710     0.8010 c5         1 C0F       0.016700
      3 C02          4.8400    -1.4830     0.1340 c          1 C0F       0.679100
      4 C03          3.6830    -0.5350     0.4240 c3         1 C0F       0.091500
      5 C04          3.0850    -0.0950    -0.9330 c3         1 C0F      -0.070100
      6 C05          1.9010     0.8000    -0.7390 ca         1 C0F      -0.067300
      7 C06          0.6630     0.2770    -0.3840 ca         1 C0F      -0.205300
      8 C07         -0.4030     1.1410    -0.1770 ca         1 C0F       0.420000
      9 C09          0.8730     2.9630    -0.6390 ca         1 C0F       0.398200
     10 C11         -1.7320     0.6320     0.2030 ce         1 C0F       0.345200
     11 C14         -3.3580    -0.8460     0.7710 c5         1 C0F      -0.042500
     12 C16         -4.0020    -1.9220    -0.1480 c          1 C0F       0.948600
     13 N08         -0.3050     2.4610    -0.3040 nb         1 C0F      -0.650000
     14 N15         -1.9840    -0.5810     0.4290 n2         1 C0F      -0.494900
     15 N52          4.1690     0.5370     1.2630 n8         1 C0F      -0.886800
     16 O17         -3.2480    -2.5830    -0.8770 o          1 C0F      -0.806800
     17 S12         -3.0380     1.8130     0.3580 ss         1 C0F      -0.371300
     18 H101         2.9320     2.6510    -1.1440 ha         1 C0F       0.128000
     19 H131        -5.0080     0.4540     0.0900 h1         1 C0F       0.069700
     20 H132        -4.5980     0.6700     1.7880 h1         1 C0F       0.069700
     21 H031         2.9070    -1.0710     0.9780 h1         1 C0F       0.073700
     22 H041         3.8550     0.4230    -1.5100 hc         1 C0F       0.062700
     23 H042         2.7850    -0.9790    -1.5030 hc         1 C0F       0.062700
     24 H061         0.5180    -0.7910    -0.2740 ha         1 C0F       0.170000
     25 H091         0.9310     4.0410    -0.7380 h4         1 C0F       0.011100
     26 H141        -3.3620    -1.2800     1.7790 h1         1 C0F       0.071700
     27 H011         5.2530    -3.4820     0.0330 hn         1 C0F       0.314500
     28 H012         3.6660    -3.1100     0.5800 hn         1 C0F       0.314500
     29 H5           4.8900     1.0590     0.7780 hn         1 C0F       0.355800
     30 H6           3.4240     1.1920     1.4650 hn         1 C0F       0.355800
     31 O18         -5.2370    -2.0300    -0.0290 o          1 C0F      -0.806800
     32 N01          4.5610    -2.7850     0.2570 nt         1 C0F      -0.671000
     33 O59          5.9290    -1.0560    -0.2220 o          1 C0F      -0.620100
@<TRIPOS>BOND
     1     1     6 ar  
     2     1     9 ar  
     3     1    18 1   
     4     2    11 1   
     5     2    17 1   
     6     2    19 1   
     7     2    20 1   
     8     3     4 1   
     9     3    32 1   
    10     3    33 2   
    11     4     5 1   
    12     4    15 1   
    13     4    21 1   
    14     5     6 1   
    15     5    22 1   
    16     5    23 1   
    17     6     7 ar  
    18     7     8 ar  
    19     7    24 1   
    20     8    10 1   
    21     8    13 ar  
    22     9    13 ar  
    23     9    25 1   
    24    10    14 2   
    25    10    17 1   
    26    11    12 1   
    27    11    14 1   
    28    11    26 1   
    29    12    16 1   
    30    12    31 1   
    31    15    29 1   
    32    15    30 1   
    33    27    32 1   
    34    28    32 1   
@<TRIPOS>SUBSTRUCTURE
     1 C0F         1 TEMP              0 ****  ****    0 ROOT
