@<TRIPOS>MOLECULE
C0F
   33    34     1     0     0
SMALL
No Charge or Current Charge


@<TRIPOS>ATOM
      1 C10          2.0480     2.2880    -0.8310 ca         1 C0F      -0.184000
      2 C13         -4.1660     0.3640     0.0940 c5         1 C0F       0.064600
      3 C02          4.8410    -1.6720     0.1740 c          1 C0F       0.612100
      4 C03          3.6930    -0.6330     0.4770 c3         1 C0F       0.091500
      5 C04          3.1140    -0.0340    -0.8330 c3         1 C0F      -0.070100
      6 C05          1.9330     0.9060    -0.6080 ca         1 C0F      -0.067300
      7 C06          0.6860     0.4160    -0.1800 ca         1 C0F      -0.122000
      8 C07         -0.3990     1.3050     0.0170 ca         1 C0F       0.354700
      9 C09          0.9340     3.1150    -0.6170 ca         1 C0F       0.332900
     10 C11         -1.7490     0.7800     0.4830 ce         1 C0F       0.345200
     11 C14         -3.4320    -0.7120     0.9340 c5         1 C0F      -0.042500
     12 C16         -3.9340    -2.1420     0.5300 c          1 C0F       0.738000
     13 N08         -0.2620     2.6450    -0.2020 nb         1 C0F      -0.650000
     14 N15         -1.9630    -0.4890     0.6890 n2         1 C0F      -0.494900
     15 N52          4.0290     0.4690     1.4460 n8         1 C0F      -0.997200
     16 O17         -4.0880    -2.4250    -0.6520 o          1 C0F      -0.701500
     17 S12         -3.1820     1.8670     0.4850 ss         1 C0F      -0.419200
     18 H101         2.9840     2.7250    -1.1670 ha         1 C0F       0.110000
     19 H131        -4.1060     0.1590    -0.9840 h1         1 C0F       0.069700
     20 H132        -5.2200     0.4860     0.3770 h1         1 C0F       0.069700
     21 H031         2.8860    -1.2210     0.9380 h1         1 C0F       0.073700
     22 H041         3.9180     0.4850    -1.3720 hc         1 C0F       0.062700
     23 H042         2.7970    -0.8510    -1.4930 hc         1 C0F       0.062700
     24 H061         0.5550    -0.6470    -0.0020 ha         1 C0F       0.152000
     25 H091         1.0010     4.1890    -0.7820 h4         1 C0F       0.011100
     26 H141        -3.6490    -0.5750     2.0010 h1         1 C0F       0.071700
     27 H011         5.1690    -3.5310    -0.6120 hn         1 C0F       0.314500
     28 H012         3.4940    -3.0130    -0.6120 hn         1 C0F       0.314500
     29 H5           4.8660     0.9620     1.1100 hn         1 C0F       0.411000
     30 H6           3.2930     1.1840     1.3970 hn         1 C0F       0.411000
     31 O18         -4.1790    -2.9460     1.4200 o          1 C0F      -0.701500
     32 N01          4.4660    -2.8380    -0.4020 nt         1 C0F      -0.604000
     33 O59          6.0220    -1.4780     0.4280 o          1 C0F      -0.620100
@<TRIPOS>BOND
     1     1     6 ar  
     2     1     9 ar  
     3     1    18 1   
     4     2    11 1   
     5     2    17 1   
     6     2    19 1   
     7     2    20 1   
     8     3     4 1   
     9     3    32 1   
    10     3    33 2   
    11     4     5 1   
    12     4    15 1   
    13     4    21 1   
    14     5     6 1   
    15     5    22 1   
    16     5    23 1   
    17     6     7 ar  
    18     7     8 ar  
    19     7    24 1   
    20     8    10 1   
    21     8    13 ar  
    22     9    13 ar  
    23     9    25 1   
    24    10    14 2   
    25    10    17 1   
    26    11    12 1   
    27    11    14 1   
    28    11    26 1   
    29    12    16 1   
    30    12    31 1   
    31    15    29 1   
    32    15    30 1   
    33    27    32 1   
    34    28    32 1   
@<TRIPOS>SUBSTRUCTURE
     1 C0F         1 TEMP              0 ****  ****    0 ROOT
