@<TRIPOS>MOLECULE
C0G
   48    49     1     0     0
SMALL
abcg2


@<TRIPOS>ATOM
      1 C02          6.5080     2.3670     0.0790 c3         1 C0G      -0.086767
      2 C03          5.3400     1.4190     0.3700 c3         1 C0G      -0.070000
      3 C04          5.4390     0.9350     1.8170 c3         1 C0G      -0.086767
      4 C25          4.0310     2.1870     0.1780 c3         1 C0G      -0.086767
      5 C05          5.4260     0.2420    -0.6380 c3         1 C0G       0.103300
      6 O24          6.6160    -0.4900    -0.5080 oh         1 C0G      -0.644000
      7 C06          4.2450    -0.7190    -0.5160 c          1 C0G       0.566100
      8 O23          4.2840    -1.6480     0.2830 o          1 C0G      -0.613100
      9 N07          3.2040    -0.4880    -1.3250 ns         1 C0G      -0.497900
     10 C08          1.9590    -1.2200    -1.2520 c3         1 C0G       0.112000
     11 C09          1.0110    -0.6230    -0.2170 c3         1 C0G      -0.188400
     12 C10         -0.3180    -1.3470    -0.1700 c          1 C0G       0.606100
     13 O22         -0.7920    -1.8940    -1.1570 o          1 C0G      -0.607100
     14 N11         -0.9310    -1.3300     1.0240 ns         1 C0G      -0.501900
     15 C12         -2.2630    -1.8570     1.2480 c3         1 C0G       0.152300
     16 C13         -3.3490    -0.8480     0.9680 ca         1 C0G      -0.120300
     17 C21         -3.8650    -0.7230    -0.3330 ca         1 C0G      -0.071000
     18 C17         -4.8210     0.2390    -0.5410 ca         1 C0G       0.047100
     19 O18         -5.4890     0.5350    -1.6840 os         1 C0G      -0.341100
     20 C19         -6.2090     1.7310    -1.4170 c5         1 C0G       0.372600
     21 O20         -6.2290     1.8940    -0.0050 os         1 C0G      -0.344100
     22 C16         -5.2720     1.0630     0.4790 ca         1 C0G       0.058100
     23 C15         -4.7870     0.9570     1.7580 ca         1 C0G      -0.102000
     24 C14         -3.8110    -0.0210     1.9830 ca         1 C0G      -0.103000
     25 H1           6.4540     2.7630    -0.9380 hc         1 C0G       0.038256
     26 H2           6.4880     3.2160     0.7660 hc         1 C0G       0.038256
     27 H3           7.4710     1.8700     0.1950 hc         1 C0G       0.038256
     28 H4           6.3870     0.4310     2.0130 hc         1 C0G       0.038256
     29 H5           5.3860     1.7900     2.4940 hc         1 C0G       0.038256
     30 H6           4.6300     0.2550     2.0860 hc         1 C0G       0.038256
     31 H7           3.1560     1.6080     0.4770 hc         1 C0G       0.038256
     32 H8           4.0410     3.0910     0.7900 hc         1 C0G       0.038256
     33 H9           3.8920     2.5000    -0.8600 hc         1 C0G       0.038256
     34 H10          5.4300     0.6780    -1.6440 h1         1 C0G       0.071700
     35 H11          6.4850    -1.1350     0.1990 ho         1 C0G       0.467000
     36 H12          3.2430     0.3030    -1.9480 hn         1 C0G       0.315500
     37 H13          1.5030    -1.1990    -2.2400 h1         1 C0G       0.074700
     38 H14          2.1740    -2.2620    -1.0170 h1         1 C0G       0.074700
     39 H15          1.4830    -0.6180     0.7680 hc         1 C0G       0.063200
     40 H16          0.8080     0.4230    -0.4700 hc         1 C0G       0.063200
     41 H17         -0.5070    -0.8110     1.7760 hn         1 C0G       0.312500
     42 H18         -2.3950    -2.7440     0.6310 h1         1 C0G       0.065200
     43 H19         -2.3140    -2.1790     2.2880 h1         1 C0G       0.065200
     44 H20         -3.5230    -1.3650    -1.1340 ha         1 C0G       0.152000
     45 H21         -5.7010     2.5830    -1.8820 h2         1 C0G       0.065200
     46 H22         -7.2270     1.6410    -1.7930 h2         1 C0G       0.065200
     47 H23         -5.1410     1.5930     2.5580 ha         1 C0G       0.134000
     48 H24         -3.4070    -0.1320     2.9820 ha         1 C0G       0.114000
@<TRIPOS>BOND
     1     1     2 1   
     2     1    25 1   
     3     1    26 1   
     4     1    27 1   
     5     2     3 1   
     6     2     4 1   
     7     2     5 1   
     8     3    28 1   
     9     3    29 1   
    10     3    30 1   
    11     4    31 1   
    12     4    32 1   
    13     4    33 1   
    14     5     6 1   
    15     5     7 1   
    16     5    34 1   
    17     6    35 1   
    18     7     8 2   
    19     7     9 1   
    20     9    10 1   
    21     9    36 1   
    22    10    11 1   
    23    10    37 1   
    24    10    38 1   
    25    11    12 1   
    26    11    39 1   
    27    11    40 1   
    28    12    13 2   
    29    12    14 1   
    30    14    15 1   
    31    14    41 1   
    32    15    16 1   
    33    15    42 1   
    34    15    43 1   
    35    16    17 ar  
    36    16    24 ar  
    37    17    18 ar  
    38    17    44 1   
    39    18    19 1   
    40    18    22 ar  
    41    19    20 1   
    42    20    21 1   
    43    20    45 1   
    44    20    46 1   
    45    21    22 1   
    46    22    23 ar  
    47    23    24 ar  
    48    23    47 1   
    49    24    48 1   
@<TRIPOS>SUBSTRUCTURE
     1 C0G         1 TEMP              0 ****  ****    0 ROOT
