@<TRIPOS>MOLECULE
C0G
   48    49     1     0     0
SMALL
No Charge or Current Charge


@<TRIPOS>ATOM
      1 C02          6.8430     2.1970     0.0380 c3         1 C0G      -0.086767
      2 C03          5.4660     1.5440     0.3520 c3         1 C0G      -0.070000
      3 C04          5.1310     1.7770     1.8540 c3         1 C0G      -0.086767
      4 C25          4.3890     2.2630    -0.5100 c3         1 C0G      -0.086767
      5 C05          5.5110     0.0120    -0.0100 c3         1 C0G       0.103300
      6 O24          6.5180    -0.6680     0.7820 oh         1 C0G      -0.644000
      7 C06          4.1250    -0.7070     0.1140 c          1 C0G       0.566100
      8 O23          3.7010    -1.1470     1.1760 o          1 C0G      -0.613100
      9 N07          3.4360    -0.8860    -1.0710 ns         1 C0G      -0.497900
     10 C08          2.1110    -1.5020    -1.1780 c3         1 C0G       0.112000
     11 C09          0.9980    -0.5190    -0.7750 c3         1 C0G      -0.188400
     12 C10         -0.3700    -1.1860    -0.8860 c          1 C0G       0.606100
     13 O22         -0.9020    -1.4140    -1.9630 o          1 C0G      -0.607100
     14 N11         -0.9740    -1.4810     0.3140 ns         1 C0G      -0.501900
     15 C12         -2.2990    -2.0840     0.4540 c3         1 C0G       0.152300
     16 C13         -3.3730    -1.0210     0.6250 ca         1 C0G      -0.120300
     17 C21         -3.9810    -0.4390    -0.5120 ca         1 C0G      -0.071000
     18 C17         -4.9630     0.5390    -0.3120 ca         1 C0G       0.047100
     19 O18         -5.6360     1.2010    -1.2880 os         1 C0G      -0.341100
     20 C19         -6.5600     2.0550    -0.5240 c5         1 C0G       0.372600
     21 O20         -6.2910     1.9020     0.9160 os         1 C0G      -0.344100
     22 C16         -5.3350     0.9380     0.9400 ca         1 C0G       0.058100
     23 C15         -4.7530     0.3900     2.0890 ca         1 C0G      -0.102000
     24 C14         -3.7620    -0.6010     1.9230 ca         1 C0G      -0.103000
     25 H1           7.1170     2.0490    -1.0140 hc         1 C0G       0.038256
     26 H2           6.8190     3.2770     0.2300 hc         1 C0G       0.038256
     27 H3           7.6400     1.7690     0.6590 hc         1 C0G       0.038256
     28 H4           5.8780     1.3120     2.5090 hc         1 C0G       0.038256
     29 H5           5.1130     2.8500     2.0850 hc         1 C0G       0.038256
     30 H6           4.1470     1.3690     2.1130 hc         1 C0G       0.038256
     31 H7           3.3800     1.9040    -0.2750 hc         1 C0G       0.038256
     32 H8           4.4010     3.3450    -0.3300 hc         1 C0G       0.038256
     33 H9           4.5690     2.1000    -1.5800 hc         1 C0G       0.038256
     34 H10          5.7940    -0.0610    -1.0690 h1         1 C0G       0.071700
     35 H11          6.0830    -0.9150     1.6300 ho         1 C0G       0.467000
     36 H12          3.8680    -0.5240    -1.9140 hn         1 C0G       0.315500
     37 H13          1.9570    -1.8310    -2.2150 h1         1 C0G       0.074700
     38 H14          2.0740    -2.3930    -0.5350 h1         1 C0G       0.074700
     39 H15          1.1740    -0.1870     0.2550 hc         1 C0G       0.063200
     40 H16          1.0300     0.3400    -1.4550 hc         1 C0G       0.063200
     41 H17         -0.4630    -1.2420     1.1540 hn         1 C0G       0.312500
     42 H18         -2.5220    -2.7040    -0.4250 h1         1 C0G       0.065200
     43 H19         -2.2920    -2.7480     1.3290 h1         1 C0G       0.065200
     44 H20         -3.6960    -0.7360    -1.5180 ha         1 C0G       0.152000
     45 H21         -6.4180     3.1020    -0.8150 h2         1 C0G       0.065200
     46 H22         -7.5910     1.7440    -0.7310 h2         1 C0G       0.065200
     47 H23         -5.0570     0.7210     3.0790 ha         1 C0G       0.134000
     48 H24         -3.2940    -1.0410     2.8010 ha         1 C0G       0.114000
@<TRIPOS>BOND
     1     1     2 1   
     2     1    25 1   
     3     1    26 1   
     4     1    27 1   
     5     2     3 1   
     6     2     4 1   
     7     2     5 1   
     8     3    28 1   
     9     3    29 1   
    10     3    30 1   
    11     4    31 1   
    12     4    32 1   
    13     4    33 1   
    14     5     6 1   
    15     5     7 1   
    16     5    34 1   
    17     6    35 1   
    18     7     8 2   
    19     7     9 1   
    20     9    10 1   
    21     9    36 1   
    22    10    11 1   
    23    10    37 1   
    24    10    38 1   
    25    11    12 1   
    26    11    39 1   
    27    11    40 1   
    28    12    13 2   
    29    12    14 1   
    30    14    15 1   
    31    14    41 1   
    32    15    16 1   
    33    15    42 1   
    34    15    43 1   
    35    16    17 ar  
    36    16    24 ar  
    37    17    18 ar  
    38    17    44 1   
    39    18    19 1   
    40    18    22 ar  
    41    19    20 1   
    42    20    21 1   
    43    20    45 1   
    44    20    46 1   
    45    21    22 1   
    46    22    23 ar  
    47    23    24 ar  
    48    23    47 1   
    49    24    48 1   
@<TRIPOS>SUBSTRUCTURE
     1 C0G         1 TEMP              0 ****  ****    0 ROOT
