@<TRIPOS>MOLECULE
C0H
   23    24     1     0     0
SMALL
bcc


@<TRIPOS>ATOM
      1 C1          -3.5720    -1.6670     0.0560 ca         1 C0H      -0.136000
      2 C2          -3.5050    -0.3110    -0.2220 ca         1 C0H      -0.104000
      3 C3          -2.2920     0.3510    -0.1130 ca         1 C0H      -0.012600
      4 C7           2.7460    -1.4270    -0.7920 ca         1 C0H       0.731900
      5 C8           3.4970     0.5110     0.0250 ca         1 C0H       0.958900
      6 CL          -2.2240     2.0420    -0.4880 cl         1 C0H      -0.112400
      7 C4          -1.1310    -0.3120     0.2920 ca         1 C0H       0.176600
      8 C5          -1.2230    -1.6720     0.5860 ca         1 C0H      -0.118000
      9 C           -2.4280    -2.3430     0.4580 ca         1 C0H      -0.110000
     10 N            0.0560     0.4060     0.4420 nu         1 C0H      -0.739300
     11 C6           1.3070     0.0200     0.0970 ca         1 C0H       0.960900
     12 N3           2.2690     0.8910     0.3760 nb         1 C0H      -0.879000
     13 N2           3.7920    -0.6610    -0.5710 nb         1 C0H      -0.836000
     14 N1           1.4850    -1.1650    -0.4920 nb         1 C0H      -0.828000
     15 H1          -4.5160    -2.1870    -0.0370 ha         1 C0H       0.138000
     16 H2          -4.3870     0.2310    -0.5320 ha         1 C0H       0.147000
     17 H5           2.9360    -2.3810    -1.2760 h5         1 C0H       0.048100
     18 H3          -0.3450    -2.2030     0.9230 ha         1 C0H       0.156000
     19 H           -2.4740    -3.3980     0.6880 ha         1 C0H       0.137000
     20 H4          -0.0130     1.3570     0.7740 hn         1 C0H       0.466800
     21 H7           4.3460     2.2080     0.7610 hn         1 C0H       0.453300
     22 H6           5.4500     1.0720     0.0670 hn         1 C0H       0.453300
     23 N4           4.5050     1.3440     0.2730 nv         1 C0H      -0.954500
@<TRIPOS>BOND
     1     1     2 ar  
     2     1     9 ar  
     3     1    15 1   
     4     2     3 ar  
     5     2    16 1   
     6     3     6 1   
     7     3     7 ar  
     8     4    13 ar  
     9     4    14 ar  
    10     4    17 1   
    11     5    12 ar  
    12     5    13 ar  
    13     5    23 1   
    14     7     8 ar  
    15     7    10 1   
    16     8     9 ar  
    17     8    18 1   
    18     9    19 1   
    19    10    11 1   
    20    10    20 1   
    21    11    12 ar  
    22    11    14 ar  
    23    21    23 1   
    24    22    23 1   
@<TRIPOS>SUBSTRUCTURE
     1 C0H         1 TEMP              0 ****  ****    0 ROOT
