@<TRIPOS>MOLECULE
C0H
   23    24     1     0     0
SMALL
No Charge or Current Charge


@<TRIPOS>ATOM
      1 C1          -3.6970    -1.6240     0.1590 ca         1 C0H      -0.118000
      2 C2          -3.6080    -0.2370    -0.0370 ca         1 C0H      -0.086000
      3 C3          -2.3540     0.4000    -0.0170 ca         1 C0H       0.079000
      4 C7           2.9810    -1.5330    -0.6570 ca         1 C0H       0.205900
      5 C8           3.5530     0.5520    -0.0180 ca         1 C0H       0.432900
      6 Cl          -2.2920     2.1510    -0.2590 cl         1 C0H      -0.204000
      7 C4          -1.1670    -0.3490     0.1880 ca         1 C0H       0.315000
      8 C5          -1.2760    -1.7410     0.4010 ca         1 C0H      -0.100000
      9 C           -2.5320    -2.3750     0.3820 ca         1 C0H      -0.092000
     10 N            0.0760     0.3150     0.2140 nu         1 C0H      -0.932900
     11 C6           1.3900    -0.0500    -0.0130 ca         1 C0H       0.434900
     12 N3           2.2890     0.9160     0.2200 nb         1 C0H      -0.353000
     13 N2           3.9730    -0.6420    -0.4510 nb         1 C0H      -0.310000
     14 N1           1.6690    -1.2890    -0.4560 nb         1 C0H      -0.302000
     15 H1          -4.6680    -2.1150     0.1450 ha         1 C0H       0.120000
     16 H2          -4.5100     0.3480    -0.2020 ha         1 C0H       0.129000
     17 H5           3.2600    -2.5240    -1.0130 h5         1 C0H       0.048100
     18 H3          -0.3950    -2.3390     0.6020 ha         1 C0H       0.138000
     19 H           -2.6010    -3.4480     0.5460 ha         1 C0H       0.119000
     20 H4          -0.0160     1.3250     0.3190 hn         1 C0H       0.522000
     21 H7           4.2400     2.3000     0.7590 hn         1 C0H       0.508500
     22 H6           5.4670     1.1810     0.2770 hn         1 C0H       0.508500
     23 N4           4.4990     1.4860     0.2060 nv         1 C0H      -1.064900
@<TRIPOS>BOND
     1     1     2 ar  
     2     1     9 ar  
     3     1    15 1   
     4     2     3 ar  
     5     2    16 1   
     6     3     6 1   
     7     3     7 ar  
     8     4    13 ar  
     9     4    14 ar  
    10     4    17 1   
    11     5    12 ar  
    12     5    13 ar  
    13     5    23 1   
    14     7     8 ar  
    15     7    10 1   
    16     8     9 ar  
    17     8    18 1   
    18     9    19 1   
    19    10    11 1   
    20    10    20 1   
    21    11    12 ar  
    22    11    14 ar  
    23    21    23 1   
    24    22    23 1   
@<TRIPOS>SUBSTRUCTURE
     1 C0H         1 TEMP              0 ****  ****    0 ROOT
