@<TRIPOS>MOLECULE
C0I
   94   100     1     0     0
SMALL
No Charge or Current Charge


@<TRIPOS>ATOM
      1 C10         16.4580    42.8760    37.1020 ca         1 C0I      -0.112000
      2 C13         16.4580    41.3290    39.0000 ca         1 C0I      -0.144600
      3 C15         20.4220    42.4230    36.6790 c3         1 C0I      -0.094400
      4 C17         20.3240    41.1100    40.2760 ca         1 C0I       0.314000
      5 C20         15.1110    38.6170    42.3260 c3         1 C0I      -0.029200
      6 C21         14.9500    39.8800    43.1350 cc         1 C0I      -0.137400
      7 C22         14.1490    40.9770    42.8300 cd         1 C0I      -0.166100
      8 C24         15.2510    41.4820    44.7070 ca         1 C0I      -0.049200
      9 C26         20.0650    39.3340    41.8880 ca         1 C0I       0.398300
     10 C28         19.7670    41.9930    41.2330 ca         1 C0I      -0.094000
     11 C01         19.8970    46.9400    38.4670 c6         1 C0I      -0.145700
     12 C02         19.8980    48.1110    37.4410 c6         1 C0I      -0.067400
     13 C03         19.2480    47.7140    36.0960 c6         1 C0I      -0.080400
     14 C04         17.8310    47.1490    36.3240 c6         1 C0I       0.160800
     15 C05         18.4480    46.3830    38.5780 c6         1 C0I       0.153800
     16 C06         20.9280    45.8580    38.0870 c          1 C0I       0.600100
     17 C07         16.4980    45.3970    37.4090 c3         1 C0I       0.206100
     18 C08         16.5000    43.9790    37.9750 ca         1 C0I      -0.071300
     19 C09         16.4230    41.5660    37.6080 ca         1 C0I      -0.076500
     20 C11         16.4970    43.7510    39.3640 ca         1 C0I      -0.112000
     21 C12         16.4910    42.4420    39.8750 ca         1 C0I      -0.076500
     22 C14         21.2750    43.6980    36.8340 c3         1 C0I       0.108000
     23 C16         19.7270    41.9530    37.9710 c3         1 C0I       0.183800
     24 C18         16.4280    39.9080    39.5170 c          1 C0I       0.603700
     25 C19         16.4830    38.5360    41.6280 c3         1 C0I       0.101000
     26 C23         15.6470    40.2260    44.3430 ca         1 C0I      -0.098800
     27 C25         19.3590    41.4660    42.4820 ca         1 C0I       0.278000
     28 C27         20.4890    39.7530    40.6110 ca         1 C0I      -0.187300
     29 C29         18.7700    42.3240    43.4280 ca         1 C0I      -0.093000
     30 C30         19.6250    43.3790    40.9840 ca         1 C0I      -0.073000
     31 C31         18.6000    43.6920    43.1620 ca         1 C0I      -0.105000
     32 C32         19.0400    44.2210    41.9420 ca         1 C0I      -0.133000
     33 C33         21.0530    38.7370    39.5950 c6         1 C0I      -0.022100
     34 C34         20.1980    37.8830    42.3550 c6         1 C0I      -0.133700
     35 C35         20.3260    36.8860    41.1840 c6         1 C0I      -0.075400
     36 C36         21.4170    37.3640    40.2070 c6         1 C0I      -0.072400
     37 C37         15.7590    42.1060    45.8550 ca         1 C0I      -0.138000
     38 C38         16.5780    39.4960    45.0960 ca         1 C0I      -0.048000
     39 C39         17.1040    40.0970    46.2590 ca         1 C0I      -0.140000
     40 C40         16.6960    41.3980    46.6380 ca         1 C0I      -0.091000
     41 N01         17.8490    45.9980    37.2640 n3         1 C0I      -0.727600
     42 N02         20.4880    44.8600    37.2530 ns         1 C0I      -0.506900
     43 N03         20.6990    41.5450    38.9960 nu         1 C0I      -0.913200
     44 N04         16.7390    39.7450    40.8450 ns         1 C0I      -0.487900
     45 N05         14.3300    41.9860    43.8080 na         1 C0I      -0.228700
     46 N06         19.5160    40.1650    42.7950 nb         1 C0I      -0.694000
     47 O01         22.0350    45.8230    38.6070 o          1 C0I      -0.618100
     48 O02         16.1130    38.9600    38.8100 o          1 C0I      -0.607100
     49 H1          16.4460    43.0350    36.0260 ha         1 C0I       0.115000
     50 H2          19.6530    42.6050    35.9180 hc         1 C0I       0.046200
     51 H3          21.0540    41.6140    36.2950 hc         1 C0I       0.046200
     52 H4          14.3220    38.5590    41.5670 hc         1 C0I       0.055200
     53 H5          14.9870    37.7390    42.9720 hc         1 C0I       0.055200
     54 H6          13.4800    41.1170    41.9850 h4         1 C0I       0.214000
     55 H7          20.2130    47.3440    39.4370 hc         1 C0I       0.079700
     56 H8          20.9250    48.4630    37.2710 hc         1 C0I       0.054200
     57 H9          19.3500    48.9640    37.8650 hc         1 C0I       0.054200
     58 H10         19.8670    46.9720    35.5740 hc         1 C0I       0.051700
     59 H11         19.1930    48.5900    35.4360 hc         1 C0I       0.051700
     60 H12         17.1830    47.9480    36.7140 h1         1 C0I       0.034200
     61 H13         17.4170    46.8410    35.3520 h1         1 C0I       0.034200
     62 H14         17.8180    47.1420    39.0640 h1         1 C0I       0.042200
     63 H15         18.4740    45.5180    39.2550 h1         1 C0I       0.042200
     64 H16         15.8660    46.0350    38.0430 h1         1 C0I       0.043200
     65 H17         16.0060    45.3570    36.4280 h1         1 C0I       0.043200
     66 H18         16.3860    40.7310    36.9120 ha         1 C0I       0.128000
     67 H19         16.5010    44.5920    40.0530 ha         1 C0I       0.115000
     68 H20         16.4870    42.3140    40.9550 ha         1 C0I       0.128000
     69 H21         22.0720    43.5100    37.5650 h1         1 C0I       0.054700
     70 H22         21.7510    43.9340    35.8730 h1         1 C0I       0.054700
     71 H23         19.0750    42.7530    38.3450 h1         1 C0I       0.045700
     72 H24         19.0860    41.0940    37.7280 h1         1 C0I       0.045700
     73 H25         16.5280    37.6480    40.9840 h1         1 C0I       0.062200
     74 H26         17.2670    38.4440    42.3880 h1         1 C0I       0.062200
     75 H27         18.4430    41.9200    44.3810 ha         1 C0I       0.141000
     76 H28         19.9760    43.8140    40.0530 ha         1 C0I       0.134000
     77 H29         18.1420    44.3400    43.9070 ha         1 C0I       0.111000
     78 H30         18.9300    45.2840    41.7380 ha         1 C0I       0.108000
     79 H31         21.9460    39.1420    39.1000 hc         1 C0I       0.043200
     80 H32         20.3060    38.5850    38.8030 hc         1 C0I       0.043200
     81 H33         19.3430    37.6010    42.9830 hc         1 C0I       0.061700
     82 H34         21.0850    37.8040    42.9970 hc         1 C0I       0.061700
     83 H35         19.3650    36.7990    40.6580 hc         1 C0I       0.046200
     84 H36         20.5700    35.8850    41.5670 hc         1 C0I       0.046200
     85 H37         21.5610    36.6250    39.4070 hc         1 C0I       0.043700
     86 H38         22.3770    37.4400    40.7370 hc         1 C0I       0.043700
     87 H39         15.4390    43.1060    46.1380 ha         1 C0I       0.111000
     88 H40         16.8850    38.4970    44.7980 ha         1 C0I       0.115000
     89 H41         17.8280    39.5580    46.8660 ha         1 C0I       0.113000
     90 H42         17.1070    41.8560    47.5360 ha         1 C0I       0.110000
     91 H44         19.5200    44.9540    36.9480 hn         1 C0I       0.344500
     92 H45         21.4740    41.0040    38.6210 hn         1 C0I       0.436000
     93 H46         17.0110    40.5750    41.3510 hn         1 C0I       0.323500
     94 H47         13.8770    42.8940    43.8430 hn         1 C0I       0.348000
@<TRIPOS>BOND
     1     1    18 ar  
     2     1    19 ar  
     3     1    49 1   
     4     2    19 ar  
     5     2    21 ar  
     6     2    24 1   
     7     3    22 1   
     8     3    23 1   
     9     3    50 1   
    10     3    51 1   
    11     4    10 ar  
    12     4    28 ar  
    13     4    43 1   
    14     5     6 1   
    15     5    25 1   
    16     5    52 1   
    17     5    53 1   
    18     6     7 2   
    19     6    26 1   
    20     7    45 1   
    21     7    54 1   
    22     8    26 ar  
    23     8    37 ar  
    24     8    45 1   
    25     9    28 ar  
    26     9    34 1   
    27     9    46 ar  
    28    10    27 ar  
    29    10    30 ar  
    30    11    12 1   
    31    11    15 1   
    32    11    16 1   
    33    11    55 1   
    34    12    13 1   
    35    12    56 1   
    36    12    57 1   
    37    13    14 1   
    38    13    58 1   
    39    13    59 1   
    40    14    41 1   
    41    14    60 1   
    42    14    61 1   
    43    15    41 1   
    44    15    62 1   
    45    15    63 1   
    46    16    42 1   
    47    16    47 2   
    48    17    18 1   
    49    17    41 1   
    50    17    64 1   
    51    17    65 1   
    52    18    20 ar  
    53    19    66 1   
    54    20    21 ar  
    55    20    67 1   
    56    21    68 1   
    57    22    42 1   
    58    22    69 1   
    59    22    70 1   
    60    23    43 1   
    61    23    71 1   
    62    23    72 1   
    63    24    44 1   
    64    24    48 2   
    65    25    44 1   
    66    25    73 1   
    67    25    74 1   
    68    26    38 ar  
    69    27    29 ar  
    70    27    46 ar  
    71    28    33 1   
    72    29    31 ar  
    73    29    75 1   
    74    30    32 ar  
    75    30    76 1   
    76    31    32 ar  
    77    31    77 1   
    78    32    78 1   
    79    33    36 1   
    80    33    79 1   
    81    33    80 1   
    82    34    35 1   
    83    34    81 1   
    84    34    82 1   
    85    35    36 1   
    86    35    83 1   
    87    35    84 1   
    88    36    85 1   
    89    36    86 1   
    90    37    40 ar  
    91    37    87 1   
    92    38    39 ar  
    93    38    88 1   
    94    39    40 ar  
    95    39    89 1   
    96    40    90 1   
    97    42    91 1   
    98    43    92 1   
    99    44    93 1   
   100    45    94 1   
@<TRIPOS>SUBSTRUCTURE
     1 C0I         1 TEMP              0 ****  ****    0 ROOT
