@<TRIPOS>MOLECULE
C0I
   94   100     1     0     0
SMALL
bcc


@<TRIPOS>ATOM
      1 C10         16.4690    43.0760    37.0770 ca         1 C0I      -0.130000
      2 C13         16.2160    41.5690    38.9400 ca         1 C0I      -0.144600
      3 C15         20.3070    42.2820    36.7580 c3         1 C0I      -0.094400
      4 C17         20.4060    40.9760    40.2730 ca         1 C0I       0.175600
      5 C20         15.1290    38.7800    42.1970 c3         1 C0I      -0.029200
      6 C21         15.0200    39.9830    43.0720 cc         1 C0I      -0.137400
      7 C22         14.3150    41.1250    42.8140 cd         1 C0I      -0.116100
      8 C24         15.3780    41.5230    44.7310 ca         1 C0I      -0.049200
      9 C26         20.2030    39.2860    41.9760 ca         1 C0I       0.463600
     10 C28         19.7650    41.8780    41.1740 ca         1 C0I      -0.159300
     11 C01         19.8330    46.7860    38.4530 c6         1 C0I      -0.145700
     12 C02         19.9450    47.9970    37.5200 c6         1 C0I      -0.067400
     13 C03         19.2840    47.7060    36.1810 c6         1 C0I      -0.080400
     14 C04         17.8540    47.2290    36.3760 c6         1 C0I       0.160800
     15 C05         18.3760    46.3400    38.5450 c6         1 C0I       0.153800
     16 C06         20.8250    45.7050    38.0410 c          1 C0I       0.667100
     17 C07         16.4240    45.5740    37.3620 c3         1 C0I       0.206100
     18 C08         16.3460    44.1790    37.9210 ca         1 C0I      -0.071300
     19 C09         16.3780    41.7870    37.5730 ca         1 C0I      -0.094500
     20 C11         16.1450    43.9540    39.2770 ca         1 C0I      -0.130000
     21 C12         16.1000    42.6650    39.7880 ca         1 C0I      -0.094500
     22 C14         21.1310    43.5510    36.9060 c3         1 C0I       0.108000
     23 C16         19.7220    41.7480    38.0550 c3         1 C0I       0.183800
     24 C18         16.1180    40.1650    39.4460 c          1 C0I       0.670700
     25 C19         16.4530    38.7450    41.4230 c3         1 C0I       0.101000
     26 C23         15.7130    40.2180    44.3050 ca         1 C0I      -0.098800
     27 C25         19.3340    41.3620    42.4190 ca         1 C0I       0.408600
     28 C27         20.6650    39.6810    40.6950 ca         1 C0I      -0.252600
     29 C29         18.6510    42.2110    43.3220 ca         1 C0I      -0.176300
     30 C30         19.5750    43.2530    40.9060 ca         1 C0I      -0.091000
     31 C31         18.4450    43.5290    43.0180 ca         1 C0I      -0.123000
     32 C32         18.9310    44.0590    41.8060 ca         1 C0I      -0.151000
     33 C33         21.3400    38.6950    39.7680 c6         1 C0I      -0.022100
     34 C34         20.4090    37.8770    42.4660 c6         1 C0I      -0.133700
     35 C35         20.5960    36.8810    41.3330 c6         1 C0I      -0.075400
     36 C36         21.7090    37.3690    40.4230 c6         1 C0I      -0.072400
     37 C37         15.8930    42.0760    45.9020 ca         1 C0I      -0.156000
     38 C38         16.5890    39.4530    45.0840 ca         1 C0I      -0.066000
     39 C39         17.1020    39.9980    46.2450 ca         1 C0I      -0.158000
     40 C40         16.7570    41.2980    46.6490 ca         1 C0I      -0.109000
     41 N01         17.7940    46.0560    37.2410 n3         1 C0I      -0.727600
     42 N02         20.3210    44.6480    37.3870 ns         1 C0I      -0.573900
     43 N03         20.7820    41.4210    39.0110 nu         1 C0I      -0.719600
     44 N04         16.6710    39.9460    40.6520 ns         1 C0I      -0.554900
     45 N05         14.5260    42.0470    43.8040 na         1 C0I      -0.178400
     46 N06         19.5510    40.0820    42.7890 nb         1 C0I      -0.694000
     47 O01         22.0160    45.8260    38.3050 o          1 C0I      -0.618100
     48 O02         15.5780    39.2870    38.7850 o          1 C0I      -0.607100
     49 H1          16.6210    43.2300    36.0150 ha         1 C0I       0.133000
     50 H2          19.4850    42.4490    36.0550 hc         1 C0I       0.046200
     51 H3          20.9410    41.5170    36.2990 hc         1 C0I       0.046200
     52 H4          14.2980    38.7570    41.4880 hc         1 C0I       0.055200
     53 H5          15.0570    37.8630    42.7880 hc         1 C0I       0.055200
     54 H6          13.6680    41.3540    41.9810 h4         1 C0I       0.164000
     55 H7          20.1390    47.0920    39.4580 hc         1 C0I       0.079700
     56 H8          20.9890    48.2880    37.3910 hc         1 C0I       0.054200
     57 H9          19.4400    48.8430    37.9960 hc         1 C0I       0.054200
     58 H10         19.8500    46.9510    35.6280 hc         1 C0I       0.051700
     59 H11         19.2750    48.6040    35.5600 hc         1 C0I       0.051700
     60 H12         17.2510    48.0540    36.7920 h1         1 C0I       0.034200
     61 H13         17.4120    46.9690    35.4120 h1         1 C0I       0.034200
     62 H14         17.8070    47.1300    39.0650 h1         1 C0I       0.042200
     63 H15         18.3060    45.4460    39.1670 h1         1 C0I       0.042200
     64 H16         15.8180    46.2550    37.9800 h1         1 C0I       0.043200
     65 H17         15.9810    45.5770    36.3640 h1         1 C0I       0.043200
     66 H18         16.4540    40.9450    36.8970 ha         1 C0I       0.146000
     67 H19         16.0190    44.7950    39.9490 ha         1 C0I       0.133000
     68 H20         15.9410    42.5310    40.8520 ha         1 C0I       0.146000
     69 H21         21.9480    43.3840    37.6060 h1         1 C0I       0.054700
     70 H22         21.5840    43.8000    35.9410 h1         1 C0I       0.054700
     71 H23         19.0440    42.4780    38.4930 h1         1 C0I       0.045700
     72 H24         19.1140    40.8640    37.8300 h1         1 C0I       0.045700
     73 H25         16.4800    37.8780    40.7630 h1         1 C0I       0.062200
     74 H26         17.2880    38.6450    42.1160 h1         1 C0I       0.062200
     75 H27         18.3020    41.7910    44.2570 ha         1 C0I       0.159000
     76 H28         19.9520    43.6790    39.9870 ha         1 C0I       0.152000
     77 H29         17.9230    44.1710    43.7160 ha         1 C0I       0.129000
     78 H30         18.7960    45.1110    41.5870 ha         1 C0I       0.126000
     79 H31         22.2470    39.1290    39.3390 hc         1 C0I       0.043200
     80 H32         20.6700    38.5020    38.9230 hc         1 C0I       0.043200
     81 H33         19.5680    37.6080    43.1060 hc         1 C0I       0.061700
     82 H34         21.3000    37.8590    43.1040 hc         1 C0I       0.061700
     83 H35         19.6650    36.7780    40.7660 hc         1 C0I       0.046200
     84 H36         20.8300    35.8950    41.7400 hc         1 C0I       0.046200
     85 H37         21.9330    36.6380    39.6450 hc         1 C0I       0.043700
     86 H38         22.6230    37.4880    41.0130 hc         1 C0I       0.043700
     87 H39         15.6290    43.0790    46.2150 ha         1 C0I       0.129000
     88 H40         16.8630    38.4500    44.7820 ha         1 C0I       0.133000
     89 H41         17.7830    39.4170    46.8550 ha         1 C0I       0.131000
     90 H42         17.1760    41.6990    47.5630 ha         1 C0I       0.128000
     91 H44         19.3540    44.7200    37.0790 hn         1 C0I       0.344500
     92 H45         21.4340    40.7840    38.5740 hn         1 C0I       0.380800
     93 H46         17.0920    40.7240    41.1330 hn         1 C0I       0.323500
     94 H47         14.1060    42.9600    43.8440 hn         1 C0I       0.297700
@<TRIPOS>BOND
     1     1    18 ar  
     2     1    19 ar  
     3     1    49 1   
     4     2    19 ar  
     5     2    21 ar  
     6     2    24 1   
     7     3    22 1   
     8     3    23 1   
     9     3    50 1   
    10     3    51 1   
    11     4    10 ar  
    12     4    28 ar  
    13     4    43 1   
    14     5     6 1   
    15     5    25 1   
    16     5    52 1   
    17     5    53 1   
    18     6     7 2   
    19     6    26 1   
    20     7    45 1   
    21     7    54 1   
    22     8    26 ar  
    23     8    37 ar  
    24     8    45 1   
    25     9    28 ar  
    26     9    34 1   
    27     9    46 ar  
    28    10    27 ar  
    29    10    30 ar  
    30    11    12 1   
    31    11    15 1   
    32    11    16 1   
    33    11    55 1   
    34    12    13 1   
    35    12    56 1   
    36    12    57 1   
    37    13    14 1   
    38    13    58 1   
    39    13    59 1   
    40    14    41 1   
    41    14    60 1   
    42    14    61 1   
    43    15    41 1   
    44    15    62 1   
    45    15    63 1   
    46    16    42 1   
    47    16    47 2   
    48    17    18 1   
    49    17    41 1   
    50    17    64 1   
    51    17    65 1   
    52    18    20 ar  
    53    19    66 1   
    54    20    21 ar  
    55    20    67 1   
    56    21    68 1   
    57    22    42 1   
    58    22    69 1   
    59    22    70 1   
    60    23    43 1   
    61    23    71 1   
    62    23    72 1   
    63    24    44 1   
    64    24    48 2   
    65    25    44 1   
    66    25    73 1   
    67    25    74 1   
    68    26    38 ar  
    69    27    29 ar  
    70    27    46 ar  
    71    28    33 1   
    72    29    31 ar  
    73    29    75 1   
    74    30    32 ar  
    75    30    76 1   
    76    31    32 ar  
    77    31    77 1   
    78    32    78 1   
    79    33    36 1   
    80    33    79 1   
    81    33    80 1   
    82    34    35 1   
    83    34    81 1   
    84    34    82 1   
    85    35    36 1   
    86    35    83 1   
    87    35    84 1   
    88    36    85 1   
    89    36    86 1   
    90    37    40 ar  
    91    37    87 1   
    92    38    39 ar  
    93    38    88 1   
    94    39    40 ar  
    95    39    89 1   
    96    40    90 1   
    97    42    91 1   
    98    43    92 1   
    99    44    93 1   
   100    45    94 1   
@<TRIPOS>SUBSTRUCTURE
     1 C0I         1 TEMP              0 ****  ****    0 ROOT
