@<TRIPOS>MOLECULE
C0J
   30    31     1     0     0
SMALL
bcc


@<TRIPOS>ATOM
      1 C12         -2.8640    -0.3510    -0.0590 ca         1 C0J      -0.181000
      2 C13         -2.9910    -1.7360    -0.3180 cg         1 C0J       0.249800
      3 C11          4.9220     0.7250    -1.0840 ca         1 C0J       0.408200
      4 C10          5.8120     0.5340    -0.0370 ca         1 C0J      -0.244300
      5 C9           5.3950    -0.2310     1.0400 ca         1 C0J      -0.088000
      6 C8           4.1160    -0.7660     1.0250 ca         1 C0J      -0.237300
      7 C7           3.2950    -0.5220    -0.0720 ca         1 C0J       0.409600
      8 C4          -1.5850     0.2510     0.0540 ca         1 C0J       0.279600
      9 C5           0.8720     0.0580     0.0200 c3         1 C0J       0.230800
     10 C6           1.8950    -1.0620    -0.1310 c3         1 C0J      -0.143700
     11 C3          -1.5460     1.6350     0.3070 ca         1 C0J      -0.245000
     12 C2          -2.7130     2.3580     0.4390 ca         1 C0J      -0.029000
     13 C1          -3.9750     1.7740     0.3320 ca         1 C0J      -0.244000
     14 N2          -3.0590    -2.8670    -0.5370 n1         1 C0J      -0.379800
     15 C           -4.0120     0.4260     0.0840 ca         1 C0J       0.230900
     16 F           -5.1840    -0.2030    -0.0340 f          1 C0J      -0.130900
     17 N           -0.4650    -0.4830    -0.0780 nu         1 C0J      -0.775600
     18 N1           3.6980     0.2130    -1.1070 nb         1 C0J      -0.673000
     19 H10          6.7990     0.9730    -0.0710 ha         1 C0J       0.145000
     20 H9           6.0560    -0.4110     1.8790 ha         1 C0J       0.140000
     21 H8           3.7570    -1.3690     1.8490 ha         1 C0J       0.143000
     22 H5           1.0110     0.5520     0.9870 h1         1 C0J       0.054700
     23 H4           1.0390     0.8090    -0.7570 h1         1 C0J       0.054700
     24 H6           1.7420    -1.5630    -1.0910 hc         1 C0J       0.063700
     25 H7           1.7460    -1.8040     0.6560 hc         1 C0J       0.063700
     26 H2          -0.5980     2.1430     0.4040 ha         1 C0J       0.141000
     27 H1          -2.6450     3.4210     0.6320 ha         1 C0J       0.134000
     28 H           -4.8840     2.3490     0.4370 ha         1 C0J       0.156000
     29 H3          -0.5500    -1.4730    -0.2440 hn         1 C0J       0.446800
     30 H11          5.2120     1.3160    -1.9460 h4         1 C0J       0.021100
@<TRIPOS>BOND
     1     1     2 1   
     2     1     8 ar  
     3     1    15 ar  
     4     2    14 3   
     5     3     4 ar  
     6     3    18 ar  
     7     3    30 1   
     8     4     5 ar  
     9     4    19 1   
    10     5     6 ar  
    11     5    20 1   
    12     6     7 ar  
    13     6    21 1   
    14     7    10 1   
    15     7    18 ar  
    16     8    11 ar  
    17     8    17 1   
    18     9    10 1   
    19     9    17 1   
    20     9    22 1   
    21     9    23 1   
    22    10    24 1   
    23    10    25 1   
    24    11    12 ar  
    25    11    26 1   
    26    12    13 ar  
    27    12    27 1   
    28    13    15 ar  
    29    13    28 1   
    30    15    16 1   
    31    17    29 1   
@<TRIPOS>SUBSTRUCTURE
     1 C0J         1 TEMP              0 ****  ****    0 ROOT
