@<TRIPOS>MOLECULE
C0J
   30    31     1     0     0
SMALL
No Charge or Current Charge


@<TRIPOS>ATOM
      1 C12         -2.9040    -0.3600    -0.1110 ca         1 C0J      -0.181000
      2 C13         -2.9820    -1.7330    -0.5150 cg         1 C0J       0.339000
      3 C11          5.2070     0.3310    -1.2590 ca         1 C0J       0.342900
      4 C10          5.9320     0.4260    -0.0590 ca         1 C0J      -0.161000
      5 C9           5.3250     0.0250     1.1410 ca         1 C0J      -0.070000
      6 C8           4.0070    -0.4560     1.0850 ca         1 C0J      -0.154000
      7 C7           3.3500    -0.5210    -0.1590 ca         1 C0J       0.344300
      8 C4          -1.6610     0.2660     0.1110 ca         1 C0J       0.418000
      9 C5           0.9090     0.0920     0.0160 c3         1 C0J       0.230800
     10 C6           1.9230    -1.0280    -0.2600 c3         1 C0J      -0.143700
     11 C3          -1.6280     1.6160     0.5080 ca         1 C0J      -0.227000
     12 C2          -2.8150     2.3440     0.6830 ca         1 C0J      -0.011000
     13 C1          -4.0480     1.7180     0.4600 ca         1 C0J      -0.226000
     14 N2          -3.0300    -2.8520    -0.8440 n1         1 C0J      -0.469000
     15 C           -4.0900     0.3740     0.0660 ca         1 C0J       0.266000
     16 F           -5.2960    -0.2050    -0.1420 f          1 C0J      -0.166000
     17 N           -0.4610    -0.4380    -0.0560 nu         1 C0J      -0.969200
     18 N1           3.9360    -0.1320    -1.3150 nb         1 C0J      -0.673000
     19 H10          6.9500     0.8050    -0.0690 ha         1 C0J       0.127000
     20 H9           5.8590     0.0860     2.0880 ha         1 C0J       0.122000
     21 H8           3.4990    -0.7760     1.9910 ha         1 C0J       0.125000
     22 H5           1.1000     0.5140     1.0140 h1         1 C0J       0.054700
     23 H4           1.0460     0.8940    -0.7230 h1         1 C0J       0.054700
     24 H6           1.7370    -1.4490    -1.2550 hc         1 C0J       0.063700
     25 H7           1.7700    -1.8410     0.4590 hc         1 C0J       0.063700
     26 H2          -0.6820     2.1150     0.6860 ha         1 C0J       0.123000
     27 H1          -2.7780     3.3880     0.9910 ha         1 C0J       0.116000
     28 H           -4.9740     2.2720     0.5930 ha         1 C0J       0.138000
     29 H3          -0.5600    -1.4140    -0.3400 hn         1 C0J       0.502000
     30 H11          5.6550     0.6360    -2.2040 h4         1 C0J       0.021100
@<TRIPOS>BOND
     1     1     2 1   
     2     1     8 ar  
     3     1    15 ar  
     4     2    14 3   
     5     3     4 ar  
     6     3    18 ar  
     7     3    30 1   
     8     4     5 ar  
     9     4    19 1   
    10     5     6 ar  
    11     5    20 1   
    12     6     7 ar  
    13     6    21 1   
    14     7    10 1   
    15     7    18 ar  
    16     8    11 ar  
    17     8    17 1   
    18     9    10 1   
    19     9    17 1   
    20     9    22 1   
    21     9    23 1   
    22    10    24 1   
    23    10    25 1   
    24    11    12 ar  
    25    11    26 1   
    26    12    13 ar  
    27    12    27 1   
    28    13    15 ar  
    29    13    28 1   
    30    15    16 1   
    31    17    29 1   
@<TRIPOS>SUBSTRUCTURE
     1 C0J         1 TEMP              0 ****  ****    0 ROOT
