@<TRIPOS>MOLECULE
C0K
   32    32     1     0     0
SMALL
No Charge or Current Charge


@<TRIPOS>ATOM
      1 C1          -3.5410     0.4270     1.7800 ca         1 C0K      -0.140000
      2 C2          -2.2280    -0.0790     1.7340 ca         1 C0K      -0.104000
      3 C3          -1.5020    -0.0860     0.5240 ca         1 C0K       0.070700
      4 C4          -2.1090     0.4240    -0.6430 ca         1 C0K      -0.118000
      5 C5          -3.4190     0.9280    -0.5990 ca         1 C0K       0.111000
      6 C6          -4.1360     0.9300     0.6130 ca         1 C0K       0.042000
      7 C7          -0.0720    -0.6200     0.4920 c3         1 C0K      -0.323400
      8 P8           0.0300    -2.2260    -0.4310 p5         1 C0K       1.267500
      9 O9           0.1070    -1.9490    -1.8940 o          1 C0K      -0.907167
     10 O10          1.2460    -2.9640     0.0180 o          1 C0K      -0.907167
     11 O11         -1.1840    -3.0350    -0.1260 o          1 C0K      -0.907167
     12 C12          0.9200     0.4770     0.0140 c3         1 C0K      -0.008400
     13 C13          2.4110     0.1800     0.3120 c3         1 C0K      -0.164400
     14 C14          3.4040     1.2970    -0.0550 c          1 C0K       0.626100
     15 O15          3.0330     2.3460    -0.5730 o          1 C0K      -0.614100
     16 N16          4.7810     1.0780     0.2250 n          1 C0K      -0.315300
     17 C17          5.8300     2.0630    -0.1070 c3         1 C0K       0.094300
     18 O18          5.2400    -0.1550     0.8190 oh         1 C0K      -0.421100
     19 F19         -3.9840     1.4130    -1.7290 f          1 C0K      -0.210000
     20 F20         -5.3970     1.4160     0.6640 f          1 C0K      -0.216000
     21 H1          -4.0920     0.4290     2.7170 ha         1 C0K       0.090000
     22 H2          -1.7740    -0.4640     2.6440 ha         1 C0K       0.118000
     23 H4          -1.5690     0.4270    -1.5850 ha         1 C0K       0.144000
     24 H7           0.2180    -0.8980     1.5110 hc         1 C0K       0.035700
     25 H12          0.7940     0.6530    -1.0610 hc         1 C0K       0.025200
     26 H12A         0.6580     1.4160     0.5160 hc         1 C0K       0.025200
     27 H13          2.5740    -0.0740     1.3650 hc         1 C0K       0.100200
     28 H13A         2.7590    -0.7310    -0.1820 hc         1 C0K       0.100200
     29 H17          6.8180     1.6790     0.1800 h1         1 C0K       0.028700
     30 H17A         5.8230     2.2590    -1.1870 h1         1 C0K       0.028700
     31 H17B         5.6400     3.0000     0.4320 h1         1 C0K       0.028700
     32 HO18         5.2560     0.0110     1.7890 ho         1 C0K       0.421000
@<TRIPOS>BOND
     1     1     2 ar  
     2     1     6 ar  
     3     1    21 1   
     4     2     3 ar  
     5     2    22 1   
     6     3     4 ar  
     7     3     7 1   
     8     4     5 ar  
     9     4    23 1   
    10     5     6 ar  
    11     5    19 1   
    12     6    20 1   
    13     7     8 1   
    14     7    12 1   
    15     7    24 1   
    16     8     9 1   
    17     8    10 1   
    18     8    11 1   
    19    12    13 1   
    20    12    25 1   
    21    12    26 1   
    22    13    14 1   
    23    13    27 1   
    24    13    28 1   
    25    14    15 2   
    26    14    16 1   
    27    16    17 1   
    28    16    18 1   
    29    17    29 1   
    30    17    30 1   
    31    17    31 1   
    32    18    32 1   
@<TRIPOS>SUBSTRUCTURE
     1 C0K         1 TEMP              0 ****  ****    0 ROOT
