@<TRIPOS>MOLECULE
C0K
   32    32     1     0     0
SMALL
bcc


@<TRIPOS>ATOM
      1 C1          -3.5990    -0.0120     1.6630 ca         1 C0K      -0.158000
      2 C2          -2.2720    -0.4130     1.6130 ca         1 C0K      -0.122000
      3 C3          -1.4180    -0.0140     0.5840 ca         1 C0K       0.070700
      4 C4          -1.9530     0.7900    -0.4240 ca         1 C0K      -0.136000
      5 C5          -3.2710     1.1870    -0.3710 ca         1 C0K       0.075900
      6 C6          -4.1000     0.7900     0.6600 ca         1 C0K       0.006900
      7 C7          -0.0090    -0.4940     0.5310 c3         1 C0K      -0.165600
      8 P8           0.0110    -2.0960    -0.4820 p5         1 C0K       1.109700
      9 O9          -0.4480    -1.6590    -1.8750 o          1 C0K      -0.907167
     10 O10          1.4670    -2.5880    -0.4340 o          1 C0K      -0.907167
     11 O11         -0.9650    -3.0190     0.2510 o          1 C0K      -0.907167
     12 C12          0.9700     0.5500    -0.0170 c3         1 C0K      -0.008400
     13 C13          2.4000     0.2400     0.4010 c3         1 C0K      -0.164400
     14 C14          3.4120     1.1770    -0.2060 c          1 C0K       0.693100
     15 O15          3.1470     1.9760    -1.0890 o          1 C0K      -0.614100
     16 N16          4.6770     1.1110     0.2960 n          1 C0K      -0.382300
     17 C17          5.8160     1.8030    -0.2490 c3         1 C0K       0.094300
     18 O18          4.9980     0.0710     1.1330 oh         1 C0K      -0.382100
     19 F19         -3.7750     1.9740    -1.3430 f          1 C0K      -0.174900
     20 F20         -5.3790     1.1950     0.6760 f          1 C0K      -0.180900
     21 H1          -4.2450    -0.3270     2.4720 ha         1 C0K       0.108000
     22 H2          -1.8870    -1.0480     2.3990 ha         1 C0K       0.136000
     23 H4          -1.3470     1.1150    -1.2590 ha         1 C0K       0.162000
     24 H7           0.2890    -0.7550     1.5540 hc         1 C0K       0.035700
     25 H12          0.9010     0.5770    -1.1060 hc         1 C0K       0.025200
     26 H12A         0.6980     1.5500     0.3360 hc         1 C0K       0.025200
     27 H13          2.4760     0.2680     1.4920 hc         1 C0K       0.100200
     28 H13A         2.6240    -0.7920     0.1110 hc         1 C0K       0.100200
     29 H17          6.4240     2.2170     0.5560 h1         1 C0K       0.028700
     30 H17A         6.4390     1.1400    -0.8530 h1         1 C0K       0.028700
     31 H17B         5.4710     2.6230    -0.8700 h1         1 C0K       0.028700
     32 HO18         4.9840     0.4330     2.0280 ho         1 C0K       0.382000
@<TRIPOS>BOND
     1     1     2 ar  
     2     1     6 ar  
     3     1    21 1   
     4     2     3 ar  
     5     2    22 1   
     6     3     4 ar  
     7     3     7 1   
     8     4     5 ar  
     9     4    23 1   
    10     5     6 ar  
    11     5    19 1   
    12     6    20 1   
    13     7     8 1   
    14     7    12 1   
    15     7    24 1   
    16     8     9 1   
    17     8    10 1   
    18     8    11 1   
    19    12    13 1   
    20    12    25 1   
    21    12    26 1   
    22    13    14 1   
    23    13    27 1   
    24    13    28 1   
    25    14    15 2   
    26    14    16 1   
    27    16    17 1   
    28    16    18 1   
    29    17    29 1   
    30    17    30 1   
    31    17    31 1   
    32    18    32 1   
@<TRIPOS>SUBSTRUCTURE
     1 C0K         1 TEMP              0 ****  ****    0 ROOT
