@<TRIPOS>MOLECULE
C0L
   79    79     1     0     0
SMALL
abcg2


@<TRIPOS>ATOM
      1 C01         -0.8360    -5.9800     0.7040 c3         1 C0L      -0.054900
      2 C02         -2.3030    -5.8580     0.4510 c2         1 C0L      -0.219200
      3 C03         -2.8650    -4.9890    -0.3860 c2         1 C0L      -0.220200
      4 C04         -4.3420    -4.8520    -0.6240 c3         1 C0L      -0.005000
      5 C05         -4.8320    -3.5420    -0.0800 c2         1 C0L      -0.199200
      6 C06         -5.1350    -2.4310    -0.7540 c2         1 C0L      -0.145400
      7 C07         -5.1110    -2.3030    -2.2480 c3         1 C0L      -0.057900
      8 C08         -5.4690    -1.1720     0.0210 c3         1 C0L       0.207500
      9 C09         -4.2470    -0.2560     0.0970 c3         1 C0L      -0.110400
     10 C10         -4.4750     1.0070     0.9360 c3         1 C0L      -0.045200
     11 C11         -3.1860     1.7480     1.1230 c2         1 C0L      -0.054400
     12 C12         -2.9850     2.9380     0.5210 ce         1 C0L      -0.222000
     13 C13         -1.7270     3.6340     0.5280 ce         1 C0L      -0.071000
     14 C14         -1.4810     4.8270    -0.0510 cf         1 C0L      -0.195200
     15 C15         -2.5220     5.6790    -0.7280 c3         1 C0L      -0.051900
     16 C16         -0.1340     5.3660     0.0920 cf         1 C0L       0.323100
     17 C17          1.0240     4.6280    -0.1260 cc         1 C0L      -0.434400
     18 C18          2.2920     4.9700     0.5300 c          1 C0L       0.612500
     19 C20          3.3320     3.9610     0.4020 cc         1 C0L      -0.400200
     20 C21          3.1620     2.8670    -0.3490 cd         1 C0L       0.166900
     21 C23          0.9680     3.5130    -1.0560 c          1 C0L       0.702300
     22 C25          4.1510     1.7570    -0.5060 c3         1 C0L      -0.018500
     23 C26          4.5740     1.6010    -1.9690 c3         1 C0L      -0.085100
     24 C27          3.5810     0.4560     0.0810 c3         1 C0L      -0.070400
     25 C28          4.5990    -0.6840     0.1280 c3         1 C0L      -0.021200
     26 C29          4.0400    -1.8960     0.8050 c2         1 C0L      -0.302200
     27 C30          3.8470    -3.0540     0.1770 c2         1 C0L      -0.050400
     28 C32          3.1880    -5.3760     0.1330 c          1 C0L       0.641100
     29 C35          2.5080    -7.6060     0.4170 c3         1 C0L       0.169900
     30 C37         -2.1450     1.0460     1.9470 c3         1 C0L      -0.070900
     31 N31          3.3110    -4.1880     0.7760 ns         1 C0L      -0.412100
     32 O19          2.4750     5.9840     1.1920 o          1 C0L      -0.541100
     33 O22          2.0380     2.6610    -1.0670 os         1 C0L      -0.355200
     34 O24          0.1100     3.2670    -1.8640 o          1 C0L      -0.496000
     35 O33          3.5010    -5.5780    -1.0200 o          1 C0L      -0.523000
     36 O34          2.6730    -6.2940     0.9480 os         1 C0L      -0.457100
     37 O36         -0.0240     6.6130     0.4830 oh         1 C0L      -0.464100
     38 O38         -6.6060    -0.5030    -0.4880 oh         1 C0L      -0.653000
     39 H012        -0.4800    -6.9820     0.4560 hc         1 C0L       0.038700
     40 H013        -0.2620    -5.2620     0.1180 hc         1 C0L       0.038700
     41 H011        -0.6000    -5.8190     1.7580 hc         1 C0L       0.038700
     42 H021        -2.9460    -6.5440     0.9980 ha         1 C0L       0.164000
     43 H031        -2.2320    -4.2930    -0.9310 ha         1 C0L       0.170000
     44 H041        -4.5530    -4.9440    -1.6920 hc         1 C0L       0.052200
     45 H042        -4.8690    -5.6730    -0.1290 hc         1 C0L       0.052200
     46 H051        -4.8810    -3.4990     1.0060 ha         1 C0L       0.166000
     47 H072        -6.1000    -2.0560    -2.6400 hc         1 C0L       0.042367
     48 H073        -4.4370    -1.5050    -2.5690 hc         1 C0L       0.042367
     49 H071        -4.7880    -3.2160    -2.7430 hc         1 C0L       0.042367
     50 H081        -5.7360    -1.4590     1.0430 h1         1 C0L       0.071700
     51 H092        -3.4270    -0.8400     0.5220 hc         1 C0L       0.053200
     52 H091        -3.9260     0.0360    -0.9090 hc         1 C0L       0.053200
     53 H101        -5.2180     1.6470     0.4580 hc         1 C0L       0.056700
     54 H102        -4.8710     0.7180     1.9160 hc         1 C0L       0.056700
     55 H121        -3.8030     3.3740    -0.0420 ha         1 C0L       0.182000
     56 H131        -0.9010     3.1470     1.0340 ha         1 C0L       0.182000
     57 H152        -3.1440     6.2230    -0.0130 hc         1 C0L       0.050033
     58 H153        -2.0720     6.4080    -1.4010 hc         1 C0L       0.050033
     59 H151        -3.1910     5.0640    -1.3270 hc         1 C0L       0.050033
     60 H201         4.2600     4.0990     0.9410 ha         1 C0L       0.211000
     61 H251         5.0280     2.0430     0.0810 hc         1 C0L       0.062700
     62 H263         4.9090     2.5500    -2.3890 hc         1 C0L       0.044033
     63 H261         5.4030     0.9000    -2.0530 hc         1 C0L       0.044033
     64 H262         3.7570     1.2230    -2.5840 hc         1 C0L       0.044033
     65 H271         3.2250     0.6520     1.0970 hc         1 C0L       0.051200
     66 H272         2.7120     0.1340    -0.4990 hc         1 C0L       0.051200
     67 H281         4.9240    -0.9480    -0.8810 hc         1 C0L       0.045700
     68 H282         5.4920    -0.3400     0.6630 hc         1 C0L       0.045700
     69 H291         3.7690    -1.7960     1.8530 ha         1 C0L       0.170000
     70 H301         4.1070    -3.1770    -0.8660 h4         1 C0L       0.212000
     71 H352         2.0710    -8.1960     1.2180 h1         1 C0L       0.051367
     72 H353         1.8350    -7.6130    -0.4400 h1         1 C0L       0.051367
     73 H351         3.4630    -8.0450     0.1290 h1         1 C0L       0.051367
     74 H373        -1.4760     0.4550     1.3170 hc         1 C0L       0.049033
     75 H371        -1.5270     1.7310     2.5240 hc         1 C0L       0.049033
     76 H372        -2.6160     0.3560     2.6470 hc         1 C0L       0.049033
     77 H381        -6.3630    -0.0480    -1.3010 ho         1 C0L       0.440000
     78 H311         3.0340    -4.1350     1.7460 hn         1 C0L       0.329500
     79 H1          -0.8790     6.9770     0.7520 ho         1 C0L       0.483000
@<TRIPOS>BOND
     1     1     2 1   
     2     1    39 1   
     3     1    40 1   
     4     1    41 1   
     5     2     3 2   
     6     2    42 1   
     7     3     4 1   
     8     3    43 1   
     9     4     5 1   
    10     4    44 1   
    11     4    45 1   
    12     5     6 2   
    13     5    46 1   
    14     6     7 1   
    15     6     8 1   
    16     7    47 1   
    17     7    48 1   
    18     7    49 1   
    19     8     9 1   
    20     8    38 1   
    21     8    50 1   
    22     9    10 1   
    23     9    51 1   
    24     9    52 1   
    25    10    11 1   
    26    10    53 1   
    27    10    54 1   
    28    11    12 2   
    29    11    30 1   
    30    12    13 1   
    31    12    55 1   
    32    13    14 2   
    33    13    56 1   
    34    14    15 1   
    35    14    16 1   
    36    15    57 1   
    37    15    58 1   
    38    15    59 1   
    39    16    17 2   
    40    16    37 1   
    41    17    18 1   
    42    17    21 1   
    43    18    19 1   
    44    18    32 2   
    45    19    20 2   
    46    19    60 1   
    47    20    22 1   
    48    20    33 1   
    49    21    33 1   
    50    21    34 2   
    51    22    23 1   
    52    22    24 1   
    53    22    61 1   
    54    23    62 1   
    55    23    63 1   
    56    23    64 1   
    57    24    25 1   
    58    24    65 1   
    59    24    66 1   
    60    25    26 1   
    61    25    67 1   
    62    25    68 1   
    63    26    27 2   
    64    26    69 1   
    65    27    31 1   
    66    27    70 1   
    67    28    31 1   
    68    28    35 2   
    69    28    36 1   
    70    29    36 1   
    71    29    71 1   
    72    29    72 1   
    73    29    73 1   
    74    30    74 1   
    75    30    75 1   
    76    30    76 1   
    77    31    78 1   
    78    37    79 1   
    79    38    77 1   
@<TRIPOS>SUBSTRUCTURE
     1 C0L         1 TEMP              0 ****  ****    0 ROOT
