@<TRIPOS>MOLECULE
C0L
   79    79     1     0     0
SMALL
No Charge or Current Charge


@<TRIPOS>ATOM
      1 C01         -1.1000    -6.4770     0.2020 c3         1 C0L      -0.054900
      2 C02         -2.5960    -6.2450     0.2430 c2         1 C0L      -0.219200
      3 C03         -3.2320    -5.2010    -0.3120 c2         1 C0L      -0.220200
      4 C04         -4.7260    -4.9620    -0.2750 c3         1 C0L      -0.005000
      5 C05         -5.0240    -3.5650     0.2380 c2         1 C0L      -0.199200
      6 C06         -5.3450    -2.4620    -0.4710 c2         1 C0L      -0.145400
      7 C07         -5.4220    -2.4060    -1.9980 c3         1 C0L      -0.057900
      8 C08         -5.6040    -1.1280     0.2320 c3         1 C0L       0.207500
      9 C09         -4.3480    -0.2260     0.2260 c3         1 C0L      -0.110400
     10 C10         -4.4660     1.0430     1.1060 c3         1 C0L      -0.045200
     11 C11         -3.1580     1.8200     1.1650 c2         1 C0L      -0.054400
     12 C12         -2.9440     2.9380     0.4320 ce         1 C0L      -0.222000
     13 C13         -1.6760     3.6890     0.3930 ce         1 C0L      -0.071000
     14 C14         -1.4260     4.8260    -0.3250 cf         1 C0L      -0.195200
     15 C15         -2.4850     5.4870    -1.2010 c3         1 C0L      -0.051900
     16 C16         -0.1000     5.4510    -0.3190 cf         1 C0L       0.323100
     17 C17          1.0610     4.7210    -0.2980 cc         1 C0L      -0.434400
     18 C18          2.2060     5.0420     0.5490 c          1 C0L       0.612500
     19 C20          3.2880     4.0920     0.5070 cc         1 C0L      -0.400200
     20 C21          3.3020     2.9850    -0.2880 cd         1 C0L       0.166900
     21 C23          1.1840     3.5630    -1.2060 c          1 C0L       0.702300
     22 C25          4.3980     1.9390    -0.2890 c3         1 C0L      -0.018500
     23 C26          5.1500     1.9270    -1.6420 c3         1 C0L      -0.085100
     24 C27          3.8240     0.5500     0.1050 c3         1 C0L      -0.070400
     25 C28          4.8760    -0.5590     0.3350 c3         1 C0L      -0.021200
     26 C29          4.2320    -1.8430     0.8180 c2         1 C0L      -0.302200
     27 C30          4.1310    -2.9710     0.1040 c2         1 C0L      -0.050400
     28 C32          3.3470    -5.3240    -0.0500 c          1 C0L       0.641100
     29 C35          2.4200    -7.5130     0.2710 c3         1 C0L       0.169900
     30 C37         -2.1190     1.1790     2.0770 c3         1 C0L      -0.070900
     31 N31          3.5140    -4.1300     0.6000 ns         1 C0L      -0.412100
     32 O19          2.2800     6.0030     1.2990 o          1 C0L      -0.541100
     33 O22          2.2960     2.7530    -1.1830 os         1 C0L      -0.355200
     34 O24          0.3160     3.3070    -2.0270 o          1 C0L      -0.496000
     35 O33          3.7260    -5.5640    -1.1870 o          1 C0L      -0.523000
     36 O34          2.6910    -6.1920     0.7720 os         1 C0L      -0.457100
     37 O36         -0.1590     6.6560     0.2590 oh         1 C0L      -0.464100
     38 O38         -6.7070    -0.4360    -0.3640 oh         1 C0L      -0.653000
     39 H012        -0.8650    -7.4270    -0.2910 hc         1 C0L       0.038700
     40 H013        -0.5800    -5.6800    -0.3430 hc         1 C0L       0.038700
     41 H011        -0.6820    -6.5140     1.2150 hc         1 C0L       0.038700
     42 H021        -3.1550    -7.0150     0.7780 ha         1 C0L       0.164000
     43 H031        -2.6710    -4.4320    -0.8480 ha         1 C0L       0.170000
     44 H041        -5.1520    -5.1250    -1.2700 hc         1 C0L       0.052200
     45 H042        -5.2160    -5.7000     0.3720 hc         1 C0L       0.052200
     46 H051        -4.9670    -3.5020     1.3260 ha         1 C0L       0.166000
     47 H072        -6.4570    -2.2920    -2.3420 hc         1 C0L       0.042367
     48 H073        -4.8420    -1.5660    -2.3970 hc         1 C0L       0.042367
     49 H071        -5.0220    -3.3050    -2.4770 hc         1 C0L       0.042367
     50 H081        -5.8460    -1.3410     1.2840 h1         1 C0L       0.071700
     51 H092        -3.5020    -0.8250     0.5850 hc         1 C0L       0.053200
     52 H091        -4.1030     0.0710    -0.8000 hc         1 C0L       0.053200
     53 H101        -5.2640     1.6800     0.7050 hc         1 C0L       0.056700
     54 H102        -4.7890     0.7620     2.1160 hc         1 C0L       0.056700
     55 H121        -3.7480     3.3130    -0.2020 ha         1 C0L       0.182000
     56 H131        -0.8560     3.2850     0.9890 ha         1 C0L       0.182000
     57 H152        -3.3160     5.8740    -0.6000 hc         1 C0L       0.050033
     58 H153        -2.0780     6.3230    -1.7840 hc         1 C0L       0.050033
     59 H151        -2.9010     4.7730    -1.9230 hc         1 C0L       0.050033
     60 H201         4.1040     4.3030     1.1870 ha         1 C0L       0.211000
     61 H251         5.1310     2.2150     0.4790 hc         1 C0L       0.062700
     62 H263         5.4870     2.9380    -1.9010 hc         1 C0L       0.044033
     63 H261         6.0360     1.2830    -1.5970 hc         1 C0L       0.044033
     64 H262         4.5010     1.5650    -2.4490 hc         1 C0L       0.044033
     65 H271         3.2410     0.6670     1.0270 hc         1 C0L       0.051200
     66 H272         3.1190     0.2130    -0.6660 hc         1 C0L       0.051200
     67 H281         5.4210    -0.7430    -0.5990 hc         1 C0L       0.045700
     68 H282         5.6160    -0.2150     1.0680 hc         1 C0L       0.045700
     69 H291         3.8350    -1.7920     1.8340 ha         1 C0L       0.170000
     70 H301         4.5140    -3.0660    -0.9170 h4         1 C0L       0.212000
     71 H352         1.8830    -8.1050     1.0230 h1         1 C0L       0.051367
     72 H353         1.8000    -7.4700    -0.6340 h1         1 C0L       0.051367
     73 H351         3.3530    -8.0390     0.0270 h1         1 C0L       0.051367
     74 H373        -1.3390     0.6820     1.4890 hc         1 C0L       0.049033
     75 H371        -1.6360     1.9260     2.7170 hc         1 C0L       0.049033
     76 H372        -2.5560     0.4270     2.7450 hc         1 C0L       0.049033
     77 H381        -6.4880    -0.3350    -1.3140 ho         1 C0L       0.440000
     78 H311         3.1360    -4.1110     1.5390 hn         1 C0L       0.329500
     79 H1          -1.1090     6.8410     0.3960 ho         1 C0L       0.483000
@<TRIPOS>BOND
     1     1     2 1   
     2     1    39 1   
     3     1    40 1   
     4     1    41 1   
     5     2     3 2   
     6     2    42 1   
     7     3     4 1   
     8     3    43 1   
     9     4     5 1   
    10     4    44 1   
    11     4    45 1   
    12     5     6 2   
    13     5    46 1   
    14     6     7 1   
    15     6     8 1   
    16     7    47 1   
    17     7    48 1   
    18     7    49 1   
    19     8     9 1   
    20     8    38 1   
    21     8    50 1   
    22     9    10 1   
    23     9    51 1   
    24     9    52 1   
    25    10    11 1   
    26    10    53 1   
    27    10    54 1   
    28    11    12 2   
    29    11    30 1   
    30    12    13 1   
    31    12    55 1   
    32    13    14 2   
    33    13    56 1   
    34    14    15 1   
    35    14    16 1   
    36    15    57 1   
    37    15    58 1   
    38    15    59 1   
    39    16    17 2   
    40    16    37 1   
    41    17    18 1   
    42    17    21 1   
    43    18    19 1   
    44    18    32 2   
    45    19    20 2   
    46    19    60 1   
    47    20    22 1   
    48    20    33 1   
    49    21    33 1   
    50    21    34 2   
    51    22    23 1   
    52    22    24 1   
    53    22    61 1   
    54    23    62 1   
    55    23    63 1   
    56    23    64 1   
    57    24    25 1   
    58    24    65 1   
    59    24    66 1   
    60    25    26 1   
    61    25    67 1   
    62    25    68 1   
    63    26    27 2   
    64    26    69 1   
    65    27    31 1   
    66    27    70 1   
    67    28    31 1   
    68    28    35 2   
    69    28    36 1   
    70    29    36 1   
    71    29    71 1   
    72    29    72 1   
    73    29    73 1   
    74    30    74 1   
    75    30    75 1   
    76    30    76 1   
    77    31    78 1   
    78    37    79 1   
    79    38    77 1   
@<TRIPOS>SUBSTRUCTURE
     1 C0L         1 TEMP              0 ****  ****    0 ROOT
