@<TRIPOS>MOLECULE
C0M
   62    66     1     0     0
SMALL
bcc


@<TRIPOS>ATOM
      1 C1          -3.7620    -1.2290     6.1060 c6         1 C0M      -0.041100
      2 C2          -4.4780    -0.1110     6.7940 cc         1 C0M      -0.020300
      3 O26         -2.7920    -0.5970     2.6630 o          1 C0M      -0.602100
      4 C25         -3.6530     0.1790     3.0510 c          1 C0M       0.677100
      5 C27         -3.8040     1.5600     2.4410 c3         1 C0M      -0.158400
      6 C28         -2.9280     1.7460     1.2100 c3         1 C0M       0.174800
      7 N29         -2.8430     3.1310     0.7850 n3         1 C0M      -0.719600
      8 C34         -4.1190     3.6560     0.3240 c6         1 C0M       0.165300
      9 C33         -4.0120     5.1240    -0.0650 c6         1 C0M      -0.075400
     10 C32         -2.9390     5.3280    -1.1270 c6         1 C0M      -0.075400
     11 C31         -1.6250     4.7250    -0.6460 c6         1 C0M      -0.075400
     12 C30         -1.8230     3.2720    -0.2430 c6         1 C0M       0.165300
     13 N5          -4.5180    -0.1650     4.0370 n          1 C0M      -0.479800
     14 C6          -4.3830    -1.4370     4.7290 c6         1 C0M       0.097000
     15 C4          -5.4920     0.7240     4.6360 c6         1 C0M       0.187300
     16 C3          -5.2660     0.7570     6.1180 cd         1 C0M      -0.160400
     17 S9          -6.0250     1.9190     7.1500 ss         1 C0M       0.047200
     18 C8          -5.2630     1.2430     8.5360 cd         1 C0M       0.118500
     19 C7          -4.4660     0.1720     8.1980 cc         1 C0M      -0.126000
     20 C10         -3.7380    -0.5740     9.1510 cg         1 C0M       0.260800
     21 N11         -3.1480    -1.1780     9.9370 n1         1 C0M      -0.380800
     22 N12         -5.4340     1.7360     9.8040 ns         1 C0M      -0.441100
     23 C13         -6.2710     2.7690    10.1140 c          1 C0M       0.682700
     24 O14         -6.9020     3.3420     9.2460 o          1 C0M      -0.565100
     25 C15         -6.3510     3.0990    11.5610 ca         1 C0M      -0.141600
     26 C20         -6.5060     2.0700    12.4600 ca         1 C0M      -0.088000
     27 C19         -6.6660     2.3240    13.8330 ca         1 C0M      -0.140000
     28 C18         -6.6590     3.6110    14.2910 ca         1 C0M      -0.083000
     29 C16         -6.3360     4.4530    12.0080 ca         1 C0M       0.007000
     30 C21         -6.1380     5.5660    11.1550 ca         1 C0M      -0.115000
     31 C22         -6.1090     6.8390    11.6580 ca         1 C0M      -0.115000
     32 C23         -6.2760     7.0770    13.0360 ca         1 C0M      -0.120000
     33 C24         -6.4600     6.0250    13.8870 ca         1 C0M      -0.115000
     34 C17         -6.4880     4.6970    13.4010 ca         1 C0M      -0.046000
     35 H11         -2.6970    -1.0000     6.0130 hc         1 C0M       0.069200
     36 H12         -3.8370    -2.1510     6.6870 hc         1 C0M       0.069200
     37 H271        -3.5310     2.3100     3.1910 hc         1 C0M       0.065700
     38 H272        -4.8540     1.7370     2.2010 hc         1 C0M       0.065700
     39 H281        -1.9160     1.4110     1.4420 h1         1 C0M       0.047700
     40 H282        -3.2940     1.0940     0.3980 h1         1 C0M       0.047700
     41 H341        -4.8590     3.5550     1.1190 h1         1 C0M       0.029450
     42 H342        -4.4970     3.0750    -0.5370 h1         1 C0M       0.029450
     43 H331        -3.7650     5.7110     0.8240 hc         1 C0M       0.045700
     44 H332        -4.9840     5.4710    -0.4190 hc         1 C0M       0.045700
     45 H321        -3.2460     4.8330    -2.0540 hc         1 C0M       0.039200
     46 H322        -2.8200     6.3880    -1.3600 hc         1 C0M       0.039200
     47 H311        -0.8630     4.7800    -1.4260 hc         1 C0M       0.045700
     48 H312        -1.2500     5.2910     0.2110 hc         1 C0M       0.045700
     49 H301        -2.0800     2.6830    -1.1420 h1         1 C0M       0.029450
     50 H302        -0.8860     2.8630     0.1420 h1         1 C0M       0.029450
     51 H61         -3.7860    -2.1180     4.1310 h1         1 C0M       0.065700
     52 H62         -5.3790    -1.8730     4.8370 h1         1 C0M       0.065700
     53 H41         -6.5060     0.3740     4.4140 h1         1 C0M       0.057700
     54 H42         -5.4120     1.7260     4.2220 h1         1 C0M       0.057700
     55 HN12        -4.8470     1.3520    10.5320 hn         1 C0M       0.343500
     56 H20         -6.5420     1.0440    12.1150 ha         1 C0M       0.138000
     57 H19         -6.8000     1.4960    14.5160 ha         1 C0M       0.141000
     58 H18         -6.7810     3.8150    15.3470 ha         1 C0M       0.137000
     59 H21         -6.0060     5.4240    10.0930 ha         1 C0M       0.149000
     60 H22         -5.9530     7.6730    10.9870 ha         1 C0M       0.136000
     61 H23         -6.2540     8.0910    13.4140 ha         1 C0M       0.136000
     62 H24         -6.5800     6.1900    14.9510 ha         1 C0M       0.134000
@<TRIPOS>BOND
     1     1     2 1   
     2     1    14 1   
     3     1    35 1   
     4     1    36 1   
     5     2    16 2   
     6     2    19 1   
     7     3     4 2   
     8     4     5 1   
     9     4    13 1   
    10     5     6 1   
    11     5    37 1   
    12     5    38 1   
    13     6     7 1   
    14     6    39 1   
    15     6    40 1   
    16     7     8 1   
    17     7    12 1   
    18     8     9 1   
    19     8    41 1   
    20     8    42 1   
    21     9    10 1   
    22     9    43 1   
    23     9    44 1   
    24    10    11 1   
    25    10    45 1   
    26    10    46 1   
    27    11    12 1   
    28    11    47 1   
    29    11    48 1   
    30    12    49 1   
    31    12    50 1   
    32    13    14 1   
    33    13    15 1   
    34    14    51 1   
    35    14    52 1   
    36    15    16 1   
    37    15    53 1   
    38    15    54 1   
    39    16    17 1   
    40    17    18 1   
    41    18    19 2   
    42    18    22 1   
    43    19    20 1   
    44    20    21 3   
    45    22    23 1   
    46    22    55 1   
    47    23    24 2   
    48    23    25 1   
    49    25    26 ar  
    50    25    29 ar  
    51    26    27 ar  
    52    26    56 1   
    53    27    28 ar  
    54    27    57 1   
    55    28    34 ar  
    56    28    58 1   
    57    29    30 ar  
    58    29    34 ar  
    59    30    31 ar  
    60    30    59 1   
    61    31    32 ar  
    62    31    60 1   
    63    32    33 ar  
    64    32    61 1   
    65    33    34 ar  
    66    33    62 1   
@<TRIPOS>SUBSTRUCTURE
     1 C0M         1 TEMP              0 ****  ****    0 ROOT
