@<TRIPOS>MOLECULE
C0M
   62    66     1     0     0
SMALL
No Charge or Current Charge


@<TRIPOS>ATOM
      1 C1          -3.8420    -1.0250     6.2990 c6         1 C0M      -0.041100
      2 C2          -4.6090     0.1320     6.9000 cc         1 C0M      -0.020300
      3 O26         -2.6100    -0.5270     2.6930 o          1 C0M      -0.602100
      4 C25         -3.4570     0.2990     3.0120 c          1 C0M       0.610100
      5 C27         -3.5880     1.6240     2.2440 c3         1 C0M      -0.158400
      6 C28         -2.6820     1.7390     1.0010 c3         1 C0M       0.174800
      7 N29         -2.7180     3.0670     0.3370 n3         1 C0M      -0.719600
      8 C34         -4.0490     3.4100    -0.2490 c6         1 C0M       0.165300
      9 C33         -4.0630     4.8390    -0.8470 c6         1 C0M      -0.075400
     10 C32         -2.9430     5.0180    -1.8960 c6         1 C0M      -0.075400
     11 C31         -1.5810     4.6230    -1.2850 c6         1 C0M      -0.075400
     12 C30         -1.6360     3.1980    -0.6810 c6         1 C0M       0.165300
     13 N5          -4.3420     0.0360     4.0860 n          1 C0M      -0.412800
     14 C6          -4.3080    -1.2470     4.8420 c6         1 C0M       0.097000
     15 C4          -5.3320     1.0180     4.6160 c6         1 C0M       0.187300
     16 C3          -5.2770     1.0470     6.1290 cd         1 C0M      -0.305300
     17 S9          -6.0740     2.2850     7.1100 ss         1 C0M       0.337000
     18 C8          -5.4440     1.5100     8.5900 cd         1 C0M      -0.026400
     19 C7          -4.6930     0.3900     8.3010 cc         1 C0M      -0.126000
     20 C10         -4.0500    -0.4420     9.2660 cg         1 C0M       0.350000
     21 N11         -3.5370    -1.1050    10.0780 n1         1 C0M      -0.470000
     22 N12         -5.6600     1.9500     9.8960 ns         1 C0M      -0.374100
     23 C13         -6.3750     3.0500    10.3370 c          1 C0M       0.615700
     24 O14         -6.9570     3.8050     9.5700 o          1 C0M      -0.565100
     25 C15         -6.4600     3.1870    11.8440 ca         1 C0M      -0.141600
     26 C20         -6.6100     2.0090    12.6170 ca         1 C0M      -0.070000
     27 C19         -6.7370     2.0690    14.0120 ca         1 C0M      -0.122000
     28 C18         -6.7190     3.3060    14.6650 ca         1 C0M      -0.065000
     29 C16         -6.4240     4.4480    12.5140 ca         1 C0M       0.007000
     30 C21         -6.2210     5.6700    11.8260 ca         1 C0M      -0.097000
     31 C22         -6.1910     6.8930    12.5190 ca         1 C0M      -0.097000
     32 C23         -6.3520     6.9200    13.9100 ca         1 C0M      -0.102000
     33 C24         -6.5320     5.7210    14.6130 ca         1 C0M      -0.097000
     34 C17         -6.5610     4.4910    13.9270 ca         1 C0M      -0.046000
     35 H11         -2.7650    -0.8120     6.3090 hc         1 C0M       0.069200
     36 H12         -3.9880    -1.9530     6.8690 hc         1 C0M       0.069200
     37 H271        -3.3940     2.4410     2.9470 hc         1 C0M       0.065700
     38 H272        -4.6460     1.7670     2.0060 hc         1 C0M       0.065700
     39 H281        -1.6520     1.5290     1.3230 h1         1 C0M       0.047700
     40 H282        -2.9590     0.9520     0.2850 h1         1 C0M       0.047700
     41 H341        -4.8390     3.3590     0.5120 h1         1 C0M       0.029450
     42 H342        -4.3120     2.6890    -1.0380 h1         1 C0M       0.029450
     43 H331        -3.9370     5.5740    -0.0400 hc         1 C0M       0.045700
     44 H332        -5.0410     5.0410    -1.3040 hc         1 C0M       0.045700
     45 H321        -3.1530     4.3910    -2.7740 hc         1 C0M       0.039200
     46 H322        -2.9150     6.0590    -2.2480 hc         1 C0M       0.039200
     47 H311        -0.7960     4.6720    -2.0520 hc         1 C0M       0.045700
     48 H312        -1.3010     5.3420    -0.5030 hc         1 C0M       0.045700
     49 H301        -1.7900     2.4710    -1.4920 h1         1 C0M       0.029450
     50 H302        -0.6590     2.9740    -0.2280 h1         1 C0M       0.029450
     51 H61         -3.6570    -1.9850     4.3550 h1         1 C0M       0.065700
     52 H62         -5.3220    -1.6740     4.8520 h1         1 C0M       0.065700
     53 H41         -6.3380     0.7260     4.2810 h1         1 C0M       0.057700
     54 H42         -5.1430     2.0300     4.2370 h1         1 C0M       0.057700
     55 HN12        -5.2340     1.4290    10.6520 hn         1 C0M       0.343500
     56 H20         -6.6650     1.0330    12.1390 ha         1 C0M       0.120000
     57 H19         -6.8620     1.1540    14.5860 ha         1 C0M       0.123000
     58 H18         -6.8220     3.3420    15.7480 ha         1 C0M       0.119000
     59 H21         -6.0680     5.7020    10.7530 ha         1 C0M       0.131000
     60 H22         -6.0370     7.8210    11.9730 ha         1 C0M       0.118000
     61 H23         -6.3280     7.8680    14.4440 ha         1 C0M       0.118000
     62 H24         -6.6430     5.7480    15.6950 ha         1 C0M       0.116000
@<TRIPOS>BOND
     1     1     2 1   
     2     1    14 1   
     3     1    35 1   
     4     1    36 1   
     5     2    16 2   
     6     2    19 1   
     7     3     4 2   
     8     4     5 1   
     9     4    13 1   
    10     5     6 1   
    11     5    37 1   
    12     5    38 1   
    13     6     7 1   
    14     6    39 1   
    15     6    40 1   
    16     7     8 1   
    17     7    12 1   
    18     8     9 1   
    19     8    41 1   
    20     8    42 1   
    21     9    10 1   
    22     9    43 1   
    23     9    44 1   
    24    10    11 1   
    25    10    45 1   
    26    10    46 1   
    27    11    12 1   
    28    11    47 1   
    29    11    48 1   
    30    12    49 1   
    31    12    50 1   
    32    13    14 1   
    33    13    15 1   
    34    14    51 1   
    35    14    52 1   
    36    15    16 1   
    37    15    53 1   
    38    15    54 1   
    39    16    17 1   
    40    17    18 1   
    41    18    19 2   
    42    18    22 1   
    43    19    20 1   
    44    20    21 3   
    45    22    23 1   
    46    22    55 1   
    47    23    24 2   
    48    23    25 1   
    49    25    26 ar  
    50    25    29 ar  
    51    26    27 ar  
    52    26    56 1   
    53    27    28 ar  
    54    27    57 1   
    55    28    34 ar  
    56    28    58 1   
    57    29    30 ar  
    58    29    34 ar  
    59    30    31 ar  
    60    30    59 1   
    61    31    32 ar  
    62    31    60 1   
    63    32    33 ar  
    64    32    61 1   
    65    33    34 ar  
    66    33    62 1   
@<TRIPOS>SUBSTRUCTURE
     1 C0M         1 TEMP              0 ****  ****    0 ROOT
