@<TRIPOS>MOLECULE
C0N
   64    68     1     0     0
SMALL
No Charge or Current Charge


@<TRIPOS>ATOM
      1 N1          -2.1040   -34.1300     1.9720 nb         1 C0N      -0.242000
      2 N3           0.0800   -37.0700     2.4080 ns         1 C0N      -0.499900
      3 C4          -2.2920   -34.2930     4.7000 ca         1 C0N       0.437900
      4 C5          -0.6060   -36.0720     1.7450 c          1 C0N       0.503600
      5 C6           0.9140   -38.0710     1.7520 c3         1 C0N       0.191100
      6 C7           1.4820   -38.9660     2.7660 c1         1 C0N      -0.187100
      7 C8           1.9360   -39.6900     3.6230 c1         1 C0N      -0.201000
      8 C10         -3.2130   -32.2200     6.9010 cc         1 C0N      -0.235000
      9 C13         -5.5570   -30.1440     8.7050 cx         1 C0N      -0.117400
     10 C15         -3.6650   -32.2240     0.5510 c6         1 C0N       0.225300
     11 C17         -4.3790   -29.8750     1.9060 c6         1 C0N       0.025100
     12 C20         -6.0360   -27.8470     0.1850 cx         1 C0N       0.191100
     13 C21         -4.7960   -27.1300     0.6250 c2         1 C0N      -0.208700
     14 C22         -4.8520   -25.9490     1.2930 ce         1 C0N      -0.187200
     15 C24         -7.3620   -25.9660     1.1450 ce         1 C0N      -0.187200
     16 C1          -1.5110   -35.2260     4.0140 ca         1 C0N      -0.300000
     17 C2          -1.4290   -35.1160     2.6050 ca         1 C0N       0.140500
     18 C3          -2.8360   -33.2840     2.7240 ca         1 C0N       0.419900
     19 N2          -2.9600   -33.3270     4.0600 nb         1 C0N      -0.315000
     20 O1          -0.5410   -35.9780     0.5240 o          1 C0N      -0.544100
     21 N4          -2.4100   -34.3810     6.0770 nu         1 C0N      -0.877800
     22 C9          -2.8900   -33.5700     7.0560 cc         1 C0N       0.496900
     23 C11         -3.6330   -31.7810     8.1190 cd         1 C0N      -0.089300
     24 N5          -3.5250   -32.9110     8.9460 na         1 C0N       0.015800
     25 N6          -3.0450   -34.0360     8.2630 nd         1 C0N      -0.555800
     26 C12         -4.0900   -30.4120     8.4620 cx         1 C0N      -0.075400
     27 C14         -4.8850   -29.5870     7.4740 cx         1 C0N      -0.117400
     28 N7          -3.5430   -32.2580     2.0460 nh         1 C0N      -0.809300
     29 C16         -4.9670   -31.5130     0.0980 c6         1 C0N       0.025100
     30 N8          -5.0900   -30.1200     0.6120 nh         1 C0N      -0.171700
     31 C18         -4.2390   -31.1490     2.7810 c6         1 C0N       0.225300
     32 C19         -6.1230   -29.3030     0.1450 cu         1 C0N       0.443600
     33 C23         -6.1360   -25.2680     1.6290 c          1 C0N       0.547500
     34 C25         -7.3240   -27.1460     0.4730 c2         1 C0N      -0.208700
     35 O2          -6.1790   -24.2110     2.2410 o          1 C0N      -0.474100
     36 O3          -5.9200   -28.7060    -1.0110 op         1 C0N      -0.338600
     37 S1          -6.3290   -21.2460     3.6960 ss         1 C0N       1.147000
     38 O4          -5.2940   -20.1760     3.4020 o          1 C0N      -0.578000
     39 O5          -7.4180   -20.8690     4.6830 o          1 C0N      -0.578000
     40 H2          -0.0020   -37.1090     3.4160 hn         1 C0N       0.320500
     41 H4           1.7230   -37.5730     1.2010 h1         1 C0N       0.077200
     42 H3           0.3060   -38.6500     1.0430 h1         1 C0N       0.077200
     43 H5           2.3450   -40.3380     4.3740 ha         1 C0N       0.259000
     44 H7          -3.1290   -31.6390     5.9930 ha         1 C0N       0.146000
     45 H11         -6.2550   -30.9670     8.5710 hc         1 C0N       0.075700
     46 H26         -5.8200   -29.4490     9.4990 hc         1 C0N       0.075700
     47 H14         -3.6800   -33.2420     0.1320 h1         1 C0N       0.093950
     48 H15         -2.7980   -31.7080     0.1090 h1         1 C0N       0.093950
     49 H18         -3.3710   -29.4860     1.7030 h1         1 C0N       0.099450
     50 H19         -4.9060   -29.1130     2.4970 h1         1 C0N       0.099450
     51 H22         -3.8380   -27.5770     0.3470 ha         1 C0N       0.228000
     52 H23         -3.9500   -25.4220     1.6040 ha         1 C0N       0.248500
     53 H24         -8.3020   -25.4590     1.3600 ha         1 C0N       0.248500
     54 H1          -0.9880   -36.0030     4.5610 ha         1 C0N       0.148000
     55 H6          -2.0790   -35.2570     6.4680 hn         1 C0N       0.525000
     56 H8          -3.7550   -32.9470     9.9390 hn         1 C0N       0.384000
     57 H9          -3.3870   -29.8750     9.0950 hc         1 C0N       0.094700
     58 H27         -4.6940   -28.5170     7.4400 hc         1 C0N       0.075700
     59 H12         -5.1390   -30.0340     6.5160 hc         1 C0N       0.075700
     60 H16         -4.9960   -31.5050    -1.0010 h1         1 C0N       0.099450
     61 H17         -5.8270   -32.1080     0.4360 h1         1 C0N       0.099450
     62 H20         -5.2370   -31.4760     3.1080 h1         1 C0N       0.093950
     63 H21         -3.6800   -30.8680     3.6870 h1         1 C0N       0.093950
     64 H25         -8.2390   -27.6280     0.1190 ha         1 C0N       0.228000
@<TRIPOS>BOND
     1     1    17 ar  
     2     1    18 ar  
     3     2     4 1   
     4     2     5 1   
     5     2    40 1   
     6     3    16 ar  
     7     3    19 ar  
     8     3    21 1   
     9     4    17 1   
    10     4    20 2   
    11     5     6 1   
    12     5    41 1   
    13     5    42 1   
    14     6     7 3   
    15     7    43 1   
    16     8    22 1   
    17     8    23 2   
    18     8    44 1   
    19     9    26 1   
    20     9    27 1   
    21     9    45 1   
    22     9    46 1   
    23    10    28 1   
    24    10    29 1   
    25    10    47 1   
    26    10    48 1   
    27    11    30 1   
    28    11    31 1   
    29    11    49 1   
    30    11    50 1   
    31    12    13 1   
    32    12    32 1   
    33    12    34 1   
    34    12    36 1   
    35    13    14 2   
    36    13    51 1   
    37    14    33 1   
    38    14    52 1   
    39    15    33 1   
    40    15    34 2   
    41    15    53 1   
    42    16    17 ar  
    43    16    54 1   
    44    18    19 ar  
    45    18    28 1   
    46    21    22 1   
    47    21    55 1   
    48    22    25 2   
    49    23    24 1   
    50    23    26 1   
    51    24    25 1   
    52    24    56 1   
    53    26    27 1   
    54    26    57 1   
    55    27    58 1   
    56    27    59 1   
    57    28    31 1   
    58    29    30 1   
    59    29    60 1   
    60    29    61 1   
    61    30    32 2   
    62    31    62 1   
    63    31    63 1   
    64    32    36 1   
    65    33    35 2   
    66    34    64 1   
    67    37    38 1   
    68    37    39 1   
@<TRIPOS>SUBSTRUCTURE
     1 C0N         1 TEMP              0 ****  ****    0 ROOT
