@<TRIPOS>MOLECULE
C0N
   64    68     1     0     0
SMALL
abcg2


@<TRIPOS>ATOM
      1 N1          -1.4840   -33.9170     2.3330 nb         1 C0N      -0.242000
      2 N3          -1.0580   -37.4000     2.5490 ns         1 C0N      -0.499900
      3 C4          -1.8810   -34.0300     5.0290 ca         1 C0N       0.437900
      4 C5          -0.7010   -36.1670     2.1490 c          1 C0N       0.503600
      5 C6          -0.6390   -38.5830     1.8330 c3         1 C0N       0.191100
      6 C7          -1.4140   -38.8220     0.6160 c1         1 C0N      -0.187100
      7 C8          -2.0540   -39.0220    -0.3810 c1         1 C0N      -0.201000
      8 C10         -3.1050   -31.8330     6.9370 cc         1 C0N      -0.235000
      9 C13         -5.3210   -29.6020     7.8700 cx         1 C0N      -0.117400
     10 C15         -1.9920   -31.5530     1.0090 c6         1 C0N       0.225300
     11 C17         -3.0380   -29.4520     2.2400 c6         1 C0N       0.025100
     12 C20         -5.9790   -28.4610     0.9550 cx         1 C0N       0.191100
     13 C21         -5.8060   -27.1080     0.4100 c2         1 C0N      -0.208700
     14 C22         -6.4720   -26.0880     0.9460 ce         1 C0N      -0.187200
     15 C24         -7.6870   -27.6740     2.4800 ce         1 C0N      -0.187200
     16 C1          -1.3900   -35.1700     4.3560 ca         1 C0N      -0.300000
     17 C2          -1.2280   -35.0390     3.0000 ca         1 C0N       0.140500
     18 C3          -1.9380   -32.9010     3.0600 ca         1 C0N       0.419900
     19 N2          -2.1560   -32.9120     4.3770 nb         1 C0N      -0.315000
     20 O1           0.0010   -35.9520     1.1800 o          1 C0N      -0.544100
     21 N4          -2.0730   -34.0850     6.3640 nu         1 C0N      -0.877800
     22 C9          -2.5700   -33.1050     7.2110 cc         1 C0N       0.496900
     23 C11         -3.4510   -31.3390     8.1810 cd         1 C0N      -0.089300
     24 N5          -3.1160   -32.2900     9.0650 na         1 C0N       0.015800
     25 N6          -2.5760   -33.3740     8.5040 nd         1 C0N      -0.555800
     26 C12         -4.0800   -30.0760     8.5850 cx         1 C0N      -0.075400
     27 C14         -4.0290   -28.8870     7.6690 cx         1 C0N      -0.117400
     28 N7          -2.2070   -31.7330     2.4260 nh         1 C0N      -0.809300
     29 C16         -3.2710   -31.0920     0.3350 c6         1 C0N       0.025100
     30 N8          -3.8150   -29.9400     1.0930 nh         1 C0N      -0.171700
     31 C18         -2.7480   -30.6110     3.1740 c6         1 C0N       0.225300
     32 C19         -4.9270   -29.4190     0.7850 cu         1 C0N       0.443600
     33 C23         -7.4310   -26.2880     2.0470 c          1 C0N       0.547500
     34 C25         -7.0270   -28.7040     1.9550 c2         1 C0N      -0.208700
     35 O2          -8.0090   -25.3560     2.5740 o          1 C0N      -0.474100
     36 O3          -5.8340   -29.5840    -0.0990 op         1 C0N      -0.338600
     37 S1          -7.7120   -22.6950     2.3640 ss         1 C0N       1.147000
     38 O4          -7.2520   -22.5880     0.9950 o          1 C0N      -0.578000
     39 O5          -9.1170   -22.4490     2.5980 o          1 C0N      -0.578000
     40 H2          -1.7700   -37.5130     3.2540 hn         1 C0N       0.320500
     41 H4          -0.7430   -39.4350     2.5050 h1         1 C0N       0.077200
     42 H3           0.4210   -38.5060     1.5850 h1         1 C0N       0.077200
     43 H5          -2.6240   -39.2000    -1.2640 ha         1 C0N       0.259000
     44 H7          -3.2230   -31.3490     5.9860 ha         1 C0N       0.146000
     45 H11         -5.6930   -30.2210     7.0630 hc         1 C0N       0.075700
     46 H26         -6.0900   -29.1280     8.4670 hc         1 C0N       0.075700
     47 H14         -1.6970   -32.4990     0.5650 h1         1 C0N       0.093950
     48 H15         -1.1830   -30.8420     0.8230 h1         1 C0N       0.093950
     49 H18         -2.1300   -28.9910     1.8540 h1         1 C0N       0.099450
     50 H19         -3.6090   -28.6880     2.7630 h1         1 C0N       0.099450
     51 H22         -5.1000   -26.9700    -0.3990 ha         1 C0N       0.228000
     52 H23         -6.3250   -25.0820     0.5760 ha         1 C0N       0.248500
     53 H24         -8.4380   -27.8290     3.2440 ha         1 C0N       0.248500
     54 H1          -1.1390   -36.0730     4.8960 ha         1 C0N       0.148000
     55 H6          -1.8240   -34.9490     6.8230 hn         1 C0N       0.525000
     56 H8          -3.2320   -32.2550    10.0660 hn         1 C0N       0.384000
     57 H9          -4.0340   -29.8690     9.6480 hc         1 C0N       0.094700
     58 H27         -3.9000   -27.9150     8.1270 hc         1 C0N       0.075700
     59 H12         -3.5220   -29.0030     6.7190 hc         1 C0N       0.075700
     60 H16         -3.0780   -30.7790    -0.6910 h1         1 C0N       0.099450
     61 H17         -4.0190   -31.8830     0.3370 h1         1 C0N       0.099450
     62 H20         -3.6700   -30.9030     3.6820 h1         1 C0N       0.093950
     63 H21         -2.0520   -30.2610     3.9400 h1         1 C0N       0.093950
     64 H25         -7.2060   -29.7230     2.2720 ha         1 C0N       0.228000
@<TRIPOS>BOND
     1     1    17 ar  
     2     1    18 ar  
     3     2     4 1   
     4     2     5 1   
     5     2    40 1   
     6     3    16 ar  
     7     3    19 ar  
     8     3    21 1   
     9     4    17 1   
    10     4    20 2   
    11     5     6 1   
    12     5    41 1   
    13     5    42 1   
    14     6     7 3   
    15     7    43 1   
    16     8    22 1   
    17     8    23 2   
    18     8    44 1   
    19     9    26 1   
    20     9    27 1   
    21     9    45 1   
    22     9    46 1   
    23    10    28 1   
    24    10    29 1   
    25    10    47 1   
    26    10    48 1   
    27    11    30 1   
    28    11    31 1   
    29    11    49 1   
    30    11    50 1   
    31    12    13 1   
    32    12    32 1   
    33    12    34 1   
    34    12    36 1   
    35    13    14 2   
    36    13    51 1   
    37    14    33 1   
    38    14    52 1   
    39    15    33 1   
    40    15    34 2   
    41    15    53 1   
    42    16    17 ar  
    43    16    54 1   
    44    18    19 ar  
    45    18    28 1   
    46    21    22 1   
    47    21    55 1   
    48    22    25 2   
    49    23    24 1   
    50    23    26 1   
    51    24    25 1   
    52    24    56 1   
    53    26    27 1   
    54    26    57 1   
    55    27    58 1   
    56    27    59 1   
    57    28    31 1   
    58    29    30 1   
    59    29    60 1   
    60    29    61 1   
    61    30    32 2   
    62    31    62 1   
    63    31    63 1   
    64    32    36 1   
    65    33    35 2   
    66    34    64 1   
    67    37    38 1   
    68    37    39 1   
@<TRIPOS>SUBSTRUCTURE
     1 C0N         1 TEMP              0 ****  ****    0 ROOT
