@<TRIPOS>MOLECULE
C0O
   23    22     1     0     0
SMALL
bcc


@<TRIPOS>ATOM
      1 C1          -3.1780    -0.0650    -0.2090 c          1 C0O       0.929600
      2 C2          -1.9050     0.1050     0.6480 c3         1 C0O       0.041500
      3 C3          -1.0510     1.2260     0.0070 c3         1 C0O      -0.066200
      4 C4           0.1250     1.6020     0.8510 c2         1 C0O      -0.184200
      5 C5           1.3870     1.1980     0.7110 c2         1 C0O      -0.124200
      6 C6           1.9490     0.2960    -0.3460 c3         1 C0O       0.030700
      7 C7           2.6170    -0.9450     0.3070 c          1 C0O       0.903600
      8 O1          -3.1520    -0.9430    -1.0950 o          1 C0O      -0.860300
      9 O3           3.6720    -1.3620    -0.2070 o          1 C0O      -0.844800
     10 O4           2.0160    -1.4510     1.2790 o          1 C0O      -0.844800
     11 N2          -1.2050    -1.1570     0.7910 n8         1 C0O      -0.906800
     12 N6           2.8130     1.0640    -1.2400 n8         1 C0O      -0.875800
     13 O2          -4.1130     0.7280     0.0220 o          1 C0O      -0.860300
     14 H1          -2.2130     0.4480     1.6420 h1         1 C0O       0.029700
     15 H2          -0.7350     0.8940    -0.9860 hc         1 C0O       0.037700
     16 H3          -1.6770     2.1110    -0.1360 hc         1 C0O       0.037700
     17 H4          -0.1000     2.2510     1.6940 ha         1 C0O       0.078000
     18 H5           2.1160     1.5720     1.4280 ha         1 C0O       0.079000
     19 H6           1.1220    -0.1010    -0.9480 h1         1 C0O       0.066700
     20 H8          -1.1500    -1.5870    -0.1250 hn         1 C0O       0.351800
     21 H9          -0.2470    -1.0150     1.0970 hn         1 C0O       0.351800
     22 H11          3.4930     1.5640    -0.6750 hn         1 C0O       0.314800
     23 H12          3.3710     0.4010    -1.7670 hn         1 C0O       0.314800
@<TRIPOS>BOND
     1     1     2 1   
     2     1     8 1   
     3     1    13 1   
     4     2     3 1   
     5     2    11 1   
     6     2    14 1   
     7     3     4 1   
     8     3    15 1   
     9     3    16 1   
    10     4     5 2   
    11     4    17 1   
    12     5     6 1   
    13     5    18 1   
    14     6     7 1   
    15     6    12 1   
    16     6    19 1   
    17     7     9 1   
    18     7    10 1   
    19    11    20 1   
    20    11    21 1   
    21    12    22 1   
    22    12    23 1   
@<TRIPOS>SUBSTRUCTURE
     1 C0O         1 TEMP              0 ****  ****    0 ROOT
