@<TRIPOS>MOLECULE
C0O
   23    22     1     0     0
SMALL
No Charge or Current Charge


@<TRIPOS>ATOM
      1 C1          -3.3760     0.2280    -0.3980 c          1 C0O       0.719000
      2 C2          -2.1500     0.3240     0.6100 c3         1 C0O       0.041500
      3 C3          -0.9560     1.0700    -0.0410 c3         1 C0O      -0.066200
      4 C4           0.1900     1.3330     0.9280 c2         1 C0O      -0.234200
      5 C5           1.4720     0.9340     0.8160 c2         1 C0O      -0.174200
      6 C6           2.0980     0.1110    -0.3020 c3         1 C0O       0.030700
      7 C7           3.2130    -0.8790     0.2490 c          1 C0O       0.693000
      8 O1          -3.3200    -0.5800    -1.3180 o          1 C0O      -0.755000
      9 O3           4.3010    -0.4170     0.5730 o          1 C0O      -0.739500
     10 O4           2.9570    -2.0750     0.2980 o          1 C0O      -0.739500
     11 N2          -1.6660    -0.9660     1.2210 n8         1 C0O      -1.017200
     12 N6           2.5310     1.0510    -1.3940 n8         1 C0O      -0.986200
     13 O2          -4.3750     0.8990    -0.1680 o          1 C0O      -0.755000
     14 H1          -2.4890     0.9490     1.4480 h1         1 C0O       0.029700
     15 H2          -0.6190     0.5100    -0.9200 hc         1 C0O       0.037700
     16 H3          -1.3220     2.0310    -0.4250 hc         1 C0O       0.037700
     17 H4          -0.1040     1.9250     1.7960 ha         1 C0O       0.128000
     18 H5           2.1800     1.2080     1.6000 ha         1 C0O       0.129000
     19 H6           1.3230    -0.5420    -0.7270 h1         1 C0O       0.066700
     20 H8          -1.4660    -1.6230     0.4570 hn         1 C0O       0.407000
     21 H9          -0.7380    -0.7880     1.6230 hn         1 C0O       0.407000
     22 H11          3.3040     1.6230    -1.0350 hn         1 C0O       0.370000
     23 H12          2.9660     0.5080    -2.1480 hn         1 C0O       0.370000
@<TRIPOS>BOND
     1     1     2 1   
     2     1     8 1   
     3     1    13 1   
     4     2     3 1   
     5     2    11 1   
     6     2    14 1   
     7     3     4 1   
     8     3    15 1   
     9     3    16 1   
    10     4     5 2   
    11     4    17 1   
    12     5     6 1   
    13     5    18 1   
    14     6     7 1   
    15     6    12 1   
    16     6    19 1   
    17     7     9 1   
    18     7    10 1   
    19    11    20 1   
    20    11    21 1   
    21    12    22 1   
    22    12    23 1   
@<TRIPOS>SUBSTRUCTURE
     1 C0O         1 TEMP              0 ****  ****    0 ROOT
