@<TRIPOS>MOLECULE
C0P
   42    44     1     0     0
SMALL
bcc


@<TRIPOS>ATOM
      1 N1           5.9300    -0.1880    -1.6430 nv         1 C0P      -0.958500
      2 C2           4.9010     0.3320    -0.9690 ca         1 C0P       0.936900
      3 N3           5.0410     1.5860    -0.5060 nb         1 C0P      -0.773000
      4 C4           4.0210     2.0720     0.1440 ca         1 C0P       0.588300
      5 CL5          4.1880     3.6850     0.7470 cl         1 C0P      -0.162000
      6 C6           2.8390     1.3910     0.3800 ca         1 C0P      -0.419600
      7 C7           2.8050     0.1020    -0.1400 cp         1 C0P       0.555800
      8 N8           3.8140    -0.4290    -0.8080 nb         1 C0P      -0.763000
      9 C9           1.5890    -0.7260     0.0290 cp         1 C0P      -0.104500
     10 C10          0.3740    -0.2100    -0.4170 ca         1 C0P      -0.198000
     11 C11         -0.8090    -0.9330    -0.3090 ca         1 C0P       0.154100
     12 O12         -2.0030    -0.5120    -0.7260 os         1 C0P      -0.282900
     13 C13         -2.1150     0.7950    -1.2700 c3         1 C0P       0.139400
     14 C14         -3.5570     1.0280    -1.6610 c3         1 C0P       0.171800
     15 N15         -4.4910     0.8990    -0.5660 n3         1 C0P      -0.706600
     16 C17         -5.8600     0.8370    -1.0400 c6         1 C0P       0.128300
     17 C18         -6.8070     0.6240     0.1250 c6         1 C0P       0.130400
     18 O19         -6.6730     1.6430     1.0930 os         1 C0P      -0.403600
     19 C20         -5.3440     1.7140     1.5600 c6         1 C0P       0.130400
     20 C21         -4.3610     1.9460     0.4290 c6         1 C0P       0.128300
     21 C22         -0.7500    -2.2010     0.2790 ca         1 C0P      -0.000600
     22 CL23        -2.2000    -3.1180     0.4330 cl         1 C0P      -0.073400
     23 C24          0.4420    -2.7220     0.7420 ca         1 C0P      -0.088000
     24 C25          1.6110    -1.9860     0.6120 ca         1 C0P       0.027400
     25 CL26         3.0680    -2.6560     1.2580 cl         1 C0P      -0.085400
     26 H11N         6.7600     0.3520    -1.8100 hn         1 C0P       0.455800
     27 H12N         5.8700    -1.1150    -2.0260 hn         1 C0P       0.455800
     28 H6           2.0180     1.8180     0.9340 ha         1 C0P       0.169000
     29 H10          0.3750     0.7700    -0.8750 ha         1 C0P       0.145000
     30 H131        -1.7670     1.5360    -0.5430 h1         1 C0P       0.038200
     31 H132        -1.4910     0.8960    -2.1640 h1         1 C0P       0.038200
     32 H141        -3.6000     2.0200    -2.1420 h1         1 C0P       0.045200
     33 H142        -3.8300     0.3010    -2.4310 h1         1 C0P       0.045200
     34 H171        -6.1520     1.7530    -1.5830 h1         1 C0P       0.039450
     35 H172        -5.9660     0.0020    -1.7380 h1         1 C0P       0.039450
     36 H211        -3.3540     1.9440     0.8530 h1         1 C0P       0.039450
     37 H212        -4.5240     2.9470    -0.0090 h1         1 C0P       0.039450
     38 H181        -7.8400     0.6380    -0.2250 h1         1 C0P       0.053200
     39 H182        -6.6130    -0.3600     0.5740 h1         1 C0P       0.053200
     40 H201        -5.2920     2.5360     2.2750 h1         1 C0P       0.053200
     41 H202        -5.0730     0.7880     2.0870 h1         1 C0P       0.053200
     42 H24          0.4580    -3.6970     1.2090 ha         1 C0P       0.164000
@<TRIPOS>BOND
     1     1     2 1   
     2     1    26 1   
     3     1    27 1   
     4     2     3 ar  
     5     2     8 ar  
     6     3     4 ar  
     7     4     5 1   
     8     4     6 ar  
     9     6     7 ar  
    10     6    28 1   
    11     7     8 ar  
    12     7     9 1   
    13     9    10 ar  
    14     9    24 ar  
    15    10    11 ar  
    16    10    29 1   
    17    11    12 1   
    18    11    21 ar  
    19    12    13 1   
    20    13    14 1   
    21    13    30 1   
    22    13    31 1   
    23    14    15 1   
    24    14    32 1   
    25    14    33 1   
    26    15    16 1   
    27    15    20 1   
    28    16    17 1   
    29    16    34 1   
    30    16    35 1   
    31    17    18 1   
    32    17    38 1   
    33    17    39 1   
    34    18    19 1   
    35    19    20 1   
    36    19    40 1   
    37    19    41 1   
    38    20    36 1   
    39    20    37 1   
    40    21    22 1   
    41    21    23 ar  
    42    23    24 ar  
    43    23    42 1   
    44    24    25 1   
@<TRIPOS>SUBSTRUCTURE
     1 C0P         1 TEMP              0 ****  ****    0 ROOT
