@<TRIPOS>MOLECULE
C0P
   42    44     1     0     0
SMALL
No Charge or Current Charge


@<TRIPOS>ATOM
      1 N1           6.1950    -0.2390    -1.3270 nv         1 C0P      -1.068900
      2 C2           5.0830     0.3380    -0.8070 ca         1 C0P       0.410900
      3 N3           5.1790     1.6400    -0.5060 nb         1 C0P      -0.247000
      4 C4           4.0690     2.2030     0.0030 ca         1 C0P       0.260000
      5 Cl5          4.1420     3.9110     0.4080 cl         1 C0P      -0.162000
      6 C6           2.8930     1.4660     0.2040 ca         1 C0P      -0.271000
      7 C7           2.9020     0.0930    -0.1340 cp         1 C0P       0.227500
      8 N8           4.0150    -0.4590    -0.6570 nb         1 C0P      -0.237000
      9 C9           1.6770    -0.7580     0.0050 cp         1 C0P      -0.104500
     10 C10          0.4290    -0.2520    -0.4460 ca         1 C0P      -0.180000
     11 C11         -0.7560    -1.0150    -0.3440 ca         1 C0P       0.154100
     12 O12         -1.9780    -0.5390    -0.7830 os         1 C0P      -0.306100
     13 C13         -2.1390     0.7770    -1.3490 c3         1 C0P       0.162600
     14 C14         -3.6350     0.9910    -1.7050 c3         1 C0P       0.171800
     15 N15         -4.6070     0.8770    -0.5780 n3         1 C0P      -0.706600
     16 C17         -6.0280     0.9290    -1.0410 c6         1 C0P       0.128300
     17 C18         -7.0300     0.7770     0.1420 c6         1 C0P       0.153600
     18 O19         -6.7640     1.7760     1.1560 os         1 C0P      -0.450000
     19 C20         -5.4150     1.6940     1.6770 c6         1 C0P       0.153600
     20 C21         -4.3770     1.8630     0.5280 c6         1 C0P       0.128300
     21 C22         -0.6970    -2.3030     0.2220 ca         1 C0P       0.091000
     22 Cl23        -2.1530    -3.2900     0.3730 cl         1 C0P      -0.165000
     23 C24          0.5230    -2.8170     0.6840 ca         1 C0P      -0.070000
     24 C25          1.7020    -2.0600     0.5830 ca         1 C0P       0.119000
     25 Cl26         3.1720    -2.7710     1.2530 cl         1 C0P      -0.177000
     26 H11N         6.9380     0.3670    -1.6700 hn         1 C0P       0.511000
     27 H12N         6.1080    -1.1480    -1.7760 hn         1 C0P       0.511000
     28 H6           2.0060     1.9380     0.6160 ha         1 C0P       0.151000
     29 H10          0.4070     0.7390    -0.8890 ha         1 C0P       0.127000
     30 H131        -1.8140     1.5490    -0.6410 h1         1 C0P       0.038200
     31 H132        -1.5410     0.8770    -2.2630 h1         1 C0P       0.038200
     32 H141        -3.7300     1.9810    -2.1720 h1         1 C0P       0.045200
     33 H142        -3.8920     0.2560    -2.4800 h1         1 C0P       0.045200
     34 H171        -6.2290     1.8830    -1.5510 h1         1 C0P       0.039450
     35 H172        -6.2210     0.1280    -1.7700 h1         1 C0P       0.039450
     36 H211        -3.3720     1.7400     0.9550 h1         1 C0P       0.039450
     37 H212        -4.4420     2.8910     0.1420 h1         1 C0P       0.039450
     38 H181        -8.0600     0.8970    -0.2210 h1         1 C0P       0.053200
     39 H182        -6.9370    -0.2250     0.5860 h1         1 C0P       0.053200
     40 H201        -5.2710     2.4820     2.4300 h1         1 C0P       0.053200
     41 H202        -5.2740     0.7210     2.1690 h1         1 C0P       0.053200
     42 H24          0.5550    -3.8060     1.1320 ha         1 C0P       0.146000
@<TRIPOS>BOND
     1     1     2 1   
     2     1    26 1   
     3     1    27 1   
     4     2     3 ar  
     5     2     8 ar  
     6     3     4 ar  
     7     4     5 1   
     8     4     6 ar  
     9     6     7 ar  
    10     6    28 1   
    11     7     8 ar  
    12     7     9 1   
    13     9    10 ar  
    14     9    24 ar  
    15    10    11 ar  
    16    10    29 1   
    17    11    12 1   
    18    11    21 ar  
    19    12    13 1   
    20    13    14 1   
    21    13    30 1   
    22    13    31 1   
    23    14    15 1   
    24    14    32 1   
    25    14    33 1   
    26    15    16 1   
    27    15    20 1   
    28    16    17 1   
    29    16    34 1   
    30    16    35 1   
    31    17    18 1   
    32    17    38 1   
    33    17    39 1   
    34    18    19 1   
    35    19    20 1   
    36    19    40 1   
    37    19    41 1   
    38    20    36 1   
    39    20    37 1   
    40    21    22 1   
    41    21    23 ar  
    42    23    24 ar  
    43    23    42 1   
    44    24    25 1   
@<TRIPOS>SUBSTRUCTURE
     1 C0P         1 TEMP              0 ****  ****    0 ROOT
