@<TRIPOS>MOLECULE
C0Q
   56    60     1     0     0
SMALL
abcg2


@<TRIPOS>ATOM
      1 C1          -3.3330    -0.3490     0.2970 ca         1 C0Q      -0.083000
      2 C2          -3.5150     1.0240     0.1320 ca         1 C0Q      -0.051300
      3 C3          -2.4320     1.8770     0.0230 ca         1 C0Q      -0.178000
      4 C7          -0.6010    -2.7790     0.2220 c3         1 C0Q       0.130600
      5 C8          -0.0610    -2.7640    -1.2130 c3         1 C0Q       0.122600
      6 C9           2.2270    -2.0870    -1.3550 c3         1 C0Q       0.135600
      7 C10          2.7250    -1.5970     0.0110 c6         1 C0Q       0.164500
      8 C11          3.4310    -2.6860     0.8230 c6         1 C0Q       0.149800
      9 C12          5.5810    -1.8520     0.2510 c6         1 C0Q       0.137800
     10 C13          4.9740    -0.7400    -0.5930 c6         1 C0Q       0.185800
     11 C14          3.0990     0.8020    -0.2650 ca         1 C0Q       0.430900
     12 C15          3.4140     3.0210    -0.5280 ca         1 C0Q       0.193900
     13 C16          2.0740     3.2650    -0.3510 ca         1 C0Q      -0.130000
     14 C19         -5.6850     0.4730    -0.8480 c6         1 C0Q      -0.161400
     15 C20         -5.6460    -0.8690    -0.1600 c          1 C0Q       0.563000
     16 O2          -6.6120    -1.6120    -0.1030 o          1 C0Q      -0.546000
     17 N           -4.4670    -1.1810     0.4480 n          1 C0Q      -0.216400
     18 C           -4.4550    -2.3030     1.3790 c3         1 C0Q       0.102300
     19 C18         -4.9260     1.5020    -0.0200 c6         1 C0Q      -0.030100
     20 C4          -1.1320     1.3800     0.0880 ca         1 C0Q       0.334000
     21 N5          -0.0960     2.3100    -0.0060 nu         1 C0Q      -0.927900
     22 C17          1.2400     2.1430    -0.1470 ca         1 C0Q       0.445900
     23 N3           3.9450     1.8080    -0.4950 nb         1 C0Q      -0.266000
     24 N4           1.7780     0.9360    -0.1040 nb         1 C0Q      -0.329000
     25 N2           3.6090    -0.4530    -0.1720 nh         1 C0Q      -0.765300
     26 N1           4.7530    -3.0390     0.3500 n7         1 C0Q      -0.845400
     27 O1           1.2940    -3.1420    -1.2730 os         1 C0Q      -0.450000
     28 O           -1.8930    -2.2000     0.2850 os         1 C0Q      -0.339100
     29 C6          -2.0290    -0.8580     0.2650 ca         1 C0Q       0.147100
     30 C5          -0.9410     0.0080     0.2090 ca         1 C0Q      -0.215000
     31 H4          -2.6050     2.9370    -0.1260 ha         1 C0Q       0.118000
     32 H6          -0.7250    -3.8060     0.5650 h1         1 C0Q       0.063200
     33 H7           0.0820    -2.2910     0.9220 h1         1 C0Q       0.063200
     34 H9          -0.6340    -3.4780    -1.8100 h1         1 C0Q       0.060200
     35 H8          -0.2120    -1.7780    -1.6680 h1         1 C0Q       0.060200
     36 H11          1.8050    -1.2360    -1.9040 h1         1 C0Q       0.053200
     37 H10          3.0710    -2.4590    -1.9440 h1         1 C0Q       0.053200
     38 H            1.8760    -1.2570     0.6030 h1         1 C0Q       0.085700
     39 H13          3.5230    -2.3360     1.8560 h1         1 C0Q       0.068200
     40 H12          2.7980    -3.5750     0.8480 h1         1 C0Q       0.068200
     41 H16          6.5530    -2.1190    -0.1680 h1         1 C0Q       0.064200
     42 H15          5.7600    -1.4760     1.2630 h1         1 C0Q       0.064200
     43 H17          5.5730     0.1610    -0.4990 h1         1 C0Q       0.061700
     44 H18          4.9900    -1.0270    -1.6520 h1         1 C0Q       0.061700
     45 H19          4.0920     3.8490    -0.7080 h4         1 C0Q       0.034100
     46 H23         -5.2320     0.3870    -1.8410 hc         1 C0Q       0.076200
     47 H24         -6.7280     0.7530    -0.9910 hc         1 C0Q       0.076200
     48 H1          -3.6730    -2.1510     2.1160 h1         1 C0Q       0.046700
     49 H3          -5.4070    -2.3440     1.9030 h1         1 C0Q       0.046700
     50 H2          -4.2920    -3.2580     0.8830 h1         1 C0Q       0.046700
     51 H21         -5.4020     1.6180     0.9590 hc         1 C0Q       0.061200
     52 H22         -4.9500     2.4790    -0.5000 hc         1 C0Q       0.061200
     53 H20         -0.4130     3.2670    -0.0550 hn         1 C0Q       0.511000
     54 H25          4.6930    -3.4960    -0.5530 hn         1 C0Q       0.412000
     55 H5           0.0660    -0.3680     0.2220 ha         1 C0Q       0.158000
     56 CL           1.4420     4.8730    -0.4160 cl         1 C0Q      -0.185000
@<TRIPOS>BOND
     1     1     2 ar  
     2     1    17 1   
     3     1    29 ar  
     4     2     3 ar  
     5     2    19 1   
     6     3    20 ar  
     7     3    31 1   
     8     4     5 1   
     9     4    28 1   
    10     4    32 1   
    11     4    33 1   
    12     5    27 1   
    13     5    34 1   
    14     5    35 1   
    15     6     7 1   
    16     6    27 1   
    17     6    36 1   
    18     6    37 1   
    19     7     8 1   
    20     7    25 1   
    21     7    38 1   
    22     8    26 1   
    23     8    39 1   
    24     8    40 1   
    25     9    10 1   
    26     9    26 1   
    27     9    41 1   
    28     9    42 1   
    29    10    25 1   
    30    10    43 1   
    31    10    44 1   
    32    11    23 ar  
    33    11    24 ar  
    34    11    25 1   
    35    12    13 ar  
    36    12    23 ar  
    37    12    45 1   
    38    13    22 ar  
    39    13    56 1   
    40    14    15 1   
    41    14    19 1   
    42    14    46 1   
    43    14    47 1   
    44    15    16 2   
    45    15    17 1   
    46    17    18 1   
    47    18    48 1   
    48    18    49 1   
    49    18    50 1   
    50    19    51 1   
    51    19    52 1   
    52    20    21 1   
    53    20    30 ar  
    54    21    22 1   
    55    21    53 1   
    56    22    24 ar  
    57    26    54 1   
    58    28    29 1   
    59    29    30 ar  
    60    30    55 1   
@<TRIPOS>SUBSTRUCTURE
     1 C0Q         1 TEMP              0 ****  ****    0 ROOT
