@<TRIPOS>MOLECULE
C0Q
   56    60     1     0     0
SMALL
No Charge or Current Charge


@<TRIPOS>ATOM
      1 C1          -3.3890    -0.3150     0.5170 ca         1 C0Q      -0.083000
      2 C2          -3.5410     1.0170     0.0580 ca         1 C0Q      -0.051300
      3 C3          -2.4420     1.8940     0.0100 ca         1 C0Q      -0.178000
      4 C7          -0.5550    -2.7630     0.7070 c3         1 C0Q       0.130600
      5 C8          -0.2470    -2.6470    -0.8120 c3         1 C0Q       0.122600
      6 C9           2.1120    -2.1860    -1.3750 c3         1 C0Q       0.135600
      7 C10          2.7780    -1.6560    -0.0620 c6         1 C0Q       0.164500
      8 C11          3.5770    -2.7840     0.6790 c6         1 C0Q       0.149800
      9 C12          5.7210    -1.8990    -0.1190 c6         1 C0Q       0.137800
     10 C13          5.0030    -0.7480    -0.8940 c6         1 C0Q       0.185800
     11 C14          3.1060     0.8830    -0.3110 ca         1 C0Q       0.430900
     12 C15          3.4470     3.1530    -0.4020 ca         1 C0Q       0.193900
     13 C16          2.0840     3.3700    -0.1440 ca         1 C0Q      -0.130000
     14 C19         -5.6120     0.3830    -1.2040 c6         1 C0Q      -0.161400
     15 C20         -5.6590    -0.9150    -0.3960 c          1 C0Q       0.563000
     16 O2          -6.6540    -1.6290    -0.4350 o          1 C0Q      -0.546000
     17 N           -4.5340    -1.2120     0.4160 n          1 C0Q      -0.216400
     18 C           -4.6210    -2.3970     1.3040 c3         1 C0Q       0.102300
     19 C18         -4.9070     1.5030    -0.4180 c6         1 C0Q      -0.030100
     20 C4          -1.1620     1.4570     0.3640 ca         1 C0Q       0.334000
     21 N5          -0.0960     2.3560     0.2610 nu         1 C0Q      -0.927900
     22 C17          1.2750     2.2310     0.0210 ca         1 C0Q       0.445900
     23 N3           3.9620     1.9110    -0.4820 nb         1 C0Q      -0.266000
     24 N4           1.7880     0.9990    -0.0750 nb         1 C0Q      -0.329000
     25 N2           3.6350    -0.4390    -0.3430 nh         1 C0Q      -0.765300
     26 N1           4.8790    -3.1200     0.0310 n7         1 C0Q      -0.845400
     27 O1           1.0740    -3.1660    -1.1060 os         1 C0Q      -0.450000
     28 O           -1.8310    -2.1310     0.9770 os         1 C0Q      -0.339100
     29 C6          -2.0670    -0.7810     0.7650 ca         1 C0Q       0.147100
     30 C5          -0.9900     0.1260     0.7630 ca         1 C0Q      -0.215000
     31 H4          -2.5820     2.9150    -0.3340 ha         1 C0Q       0.118000
     32 H6          -0.6070    -3.8270     0.9690 h1         1 C0Q       0.063200
     33 H7           0.2410    -2.3230     1.3140 h1         1 C0Q       0.063200
     34 H9          -1.0020    -3.2310    -1.3540 h1         1 C0Q       0.060200
     35 H8          -0.3450    -1.6070    -1.1460 h1         1 C0Q       0.060200
     36 H11          1.7050    -1.3360    -1.9390 h1         1 C0Q       0.053200
     37 H10          2.8950    -2.6350    -1.9990 h1         1 C0Q       0.053200
     38 H            1.9700    -1.3760     0.6230 h1         1 C0Q       0.085700
     39 H13          3.7720    -2.4460     1.7080 h1         1 C0Q       0.068200
     40 H12          2.9540    -3.6880     0.7570 h1         1 C0Q       0.068200
     41 H16          6.6580    -2.1540    -0.6360 h1         1 C0Q       0.064200
     42 H15          5.9960    -1.5270     0.8800 h1         1 C0Q       0.064200
     43 H17          5.6640     0.1290    -0.8610 h1         1 C0Q       0.061700
     44 H18          4.9150    -1.0340    -1.9530 h1         1 C0Q       0.061700
     45 H19          4.1380     3.9830    -0.5430 h4         1 C0Q       0.034100
     46 H23         -4.9790     0.1760    -2.0770 hc         1 C0Q       0.076200
     47 H24         -6.6140     0.6590    -1.5590 hc         1 C0Q       0.076200
     48 H1          -4.0200    -2.2360     2.2080 h1         1 C0Q       0.046700
     49 H3          -5.6560    -2.5720     1.6230 h1         1 C0Q       0.046700
     50 H2          -4.2550    -3.2850     0.7730 h1         1 C0Q       0.046700
     51 H21         -5.5160     1.7970     0.4470 hc         1 C0Q       0.061200
     52 H22         -4.8070     2.3950    -1.0530 hc         1 C0Q       0.061200
     53 H20         -0.3940     3.3280     0.1980 hn         1 C0Q       0.511000
     54 H25          4.6840    -3.4950    -0.9060 hn         1 C0Q       0.412000
     55 H5          -0.0120    -0.2100     1.0640 ha         1 C0Q       0.158000
     56 Cl           1.4340     5.0110    -0.0450 cl         1 C0Q      -0.185000
@<TRIPOS>BOND
     1     1     2 ar  
     2     1    17 1   
     3     1    29 ar  
     4     2     3 ar  
     5     2    19 1   
     6     3    20 ar  
     7     3    31 1   
     8     4     5 1   
     9     4    28 1   
    10     4    32 1   
    11     4    33 1   
    12     5    27 1   
    13     5    34 1   
    14     5    35 1   
    15     6     7 1   
    16     6    27 1   
    17     6    36 1   
    18     6    37 1   
    19     7     8 1   
    20     7    25 1   
    21     7    38 1   
    22     8    26 1   
    23     8    39 1   
    24     8    40 1   
    25     9    10 1   
    26     9    26 1   
    27     9    41 1   
    28     9    42 1   
    29    10    25 1   
    30    10    43 1   
    31    10    44 1   
    32    11    23 ar  
    33    11    24 ar  
    34    11    25 1   
    35    12    13 ar  
    36    12    23 ar  
    37    12    45 1   
    38    13    22 ar  
    39    13    56 1   
    40    14    15 1   
    41    14    19 1   
    42    14    46 1   
    43    14    47 1   
    44    15    16 2   
    45    15    17 1   
    46    17    18 1   
    47    18    48 1   
    48    18    49 1   
    49    18    50 1   
    50    19    51 1   
    51    19    52 1   
    52    20    21 1   
    53    20    30 ar  
    54    21    22 1   
    55    21    53 1   
    56    22    24 ar  
    57    26    54 1   
    58    28    29 1   
    59    29    30 ar  
    60    30    55 1   
@<TRIPOS>SUBSTRUCTURE
     1 C0Q         1 TEMP              0 ****  ****    0 ROOT
