@<TRIPOS>MOLECULE
C0R
   55    58     1     0     0
SMALL
No Charge or Current Charge


@<TRIPOS>ATOM
      1 C1           3.0080     1.5950     0.7010 c6         1 C0R      -0.065400
      2 C2           4.5510     1.6880     0.7270 c6         1 C0R      -0.180400
      3 C3           5.1710     0.3480     1.1140 c          1 C0R       0.575300
      4 C4           4.5160    -0.8490     0.5330 ce         1 C0R      -0.320200
      5 C5           3.2990    -0.8270    -0.0630 c2         1 C0R      -0.036400
      6 C6           2.7170    -2.0930    -0.6850 c6         1 C0R      -0.051200
      7 C7           1.2630    -2.3360    -0.2510 c6         1 C0R      -0.071400
      8 C8           0.3570    -1.1100    -0.5480 c6         1 C0R      -0.040700
      9 C9           0.9450     0.1820     0.1310 c6         1 C0R      -0.036700
     10 C10          2.4660     0.4630    -0.2460 c6         1 C0R      -0.000800
     11 C11         -0.0290     1.4280     0.0240 c6         1 C0R       0.183300
     12 C12         -1.4850     1.0810     0.4730 c6         1 C0R      -0.104400
     13 C13         -2.0700    -0.1900    -0.2240 c5         1 C0R      -0.027000
     14 C14         -1.0800    -1.3690    -0.0000 c5         1 C0R      -0.065700
     15 C15         -1.8860    -2.5830    -0.5450 c5         1 C0R      -0.069400
     16 C16         -3.3440    -2.2950    -0.0430 c5         1 C0R      -0.066400
     17 C17         -3.2840    -0.8330     0.5390 c5         1 C0R      -0.169700
     18 C18         -2.3880     0.1280    -1.7300 c3         1 C0R      -0.087100
     19 C19          2.6830     0.8830    -1.7410 c3         1 C0R      -0.074100
     20 C20         -4.6160    -0.0490     0.3340 c          1 C0R       0.574100
     21 C21         -5.0750     0.7880     1.5690 c3         1 C0R       0.055600
     22 O1           6.1540     0.2690     1.8370 o          1 C0R      -0.530100
     23 O2          -0.0480     2.0260    -1.2750 oh         1 C0R      -0.655000
     24 O3          -5.2680    -0.0620    -0.7080 o          1 C0R      -0.483100
     25 O4          -6.2650     1.5860     1.3450 oh         1 C0R      -0.627000
     26 H11A         2.6650     1.4160     1.7300 hc         1 C0R       0.047700
     27 H12          2.5930     2.5700     0.4110 hc         1 C0R       0.047700
     28 H21          4.9260     2.4840     1.3840 hc         1 C0R       0.070700
     29 H22          4.8850     1.9070    -0.2950 hc         1 C0R       0.070700
     30 H4           5.0660    -1.7790     0.6550 ha         1 C0R       0.195000
     31 H61          3.3250    -2.9670    -0.4150 hc         1 C0R       0.055700
     32 H62          2.7680    -2.0200    -1.7800 hc         1 C0R       0.055700
     33 H71          1.2440    -2.5670     0.8230 hc         1 C0R       0.044700
     34 H72          0.8790    -3.2250    -0.7680 hc         1 C0R       0.044700
     35 H8           0.3100    -0.9670    -1.6350 hc         1 C0R       0.068700
     36 H9           0.9620    -0.0560     1.2040 hc         1 C0R       0.046700
     37 H11          0.3320     2.1840     0.7350 h1         1 C0R       0.026700
     38 H121        -2.1490     1.9430     0.3200 hc         1 C0R       0.042700
     39 H122        -1.4690     0.9170     1.5590 hc         1 C0R       0.042700
     40 H14         -0.9190    -1.5210     1.0760 hc         1 C0R       0.040700
     41 H151        -1.8400    -2.6470    -1.6380 hc         1 C0R       0.047200
     42 H152        -1.5060    -3.5350    -0.1580 hc         1 C0R       0.047200
     43 H161        -4.0580    -2.3960    -0.8690 hc         1 C0R       0.055700
     44 H162        -3.6580    -3.0110     0.7260 hc         1 C0R       0.055700
     45 H17         -3.0690    -0.8450     1.6150 hc         1 C0R       0.054700
     46 H181        -1.4860     0.2230    -2.3410 hc         1 C0R       0.045700
     47 H182        -2.9950    -0.6490    -2.2090 hc         1 C0R       0.045700
     48 H183        -2.9470     1.0660    -1.8280 hc         1 C0R       0.045700
     49 H191         3.7360     0.7890    -2.0330 hc         1 C0R       0.041700
     50 H192         2.1060     0.2610    -2.4340 hc         1 C0R       0.041700
     51 H193         2.4060     1.9270    -1.9240 hc         1 C0R       0.041700
     52 H211        -5.2390     0.0840     2.3950 h1         1 C0R       0.033200
     53 H212        -4.2340     1.4340     1.8550 h1         1 C0R       0.033200
     54 HO2         -0.6540     2.7940    -1.2200 ho         1 C0R       0.441000
     55 HO4         -6.4640     2.0640     2.1820 ho         1 C0R       0.444000
@<TRIPOS>BOND
     1     1     2 1   
     2     1    10 1   
     3     1    26 1   
     4     1    27 1   
     5     2     3 1   
     6     2    28 1   
     7     2    29 1   
     8     3     4 1   
     9     3    22 2   
    10     4     5 2   
    11     4    30 1   
    12     5     6 1   
    13     5    10 1   
    14     6     7 1   
    15     6    31 1   
    16     6    32 1   
    17     7     8 1   
    18     7    33 1   
    19     7    34 1   
    20     8     9 1   
    21     8    14 1   
    22     8    35 1   
    23     9    10 1   
    24     9    11 1   
    25     9    36 1   
    26    10    19 1   
    27    11    12 1   
    28    11    23 1   
    29    11    37 1   
    30    12    13 1   
    31    12    38 1   
    32    12    39 1   
    33    13    14 1   
    34    13    17 1   
    35    13    18 1   
    36    14    15 1   
    37    14    40 1   
    38    15    16 1   
    39    15    41 1   
    40    15    42 1   
    41    16    17 1   
    42    16    43 1   
    43    16    44 1   
    44    17    20 1   
    45    17    45 1   
    46    18    46 1   
    47    18    47 1   
    48    18    48 1   
    49    19    49 1   
    50    19    50 1   
    51    19    51 1   
    52    20    21 1   
    53    20    24 2   
    54    21    25 1   
    55    21    52 1   
    56    21    53 1   
    57    23    54 1   
    58    25    55 1   
@<TRIPOS>SUBSTRUCTURE
     1 C0R         1 TEMP              0 ****  ****    0 ROOT
