@<TRIPOS>MOLECULE
C0R
   55    58     1     0     0
SMALL
abcg2


@<TRIPOS>ATOM
      1 C1           2.9080     1.5870     0.6430 c6         1 C0R      -0.065400
      2 C2           4.4250     1.6900     0.6840 c6         1 C0R      -0.180400
      3 C3           5.0440     0.3860     1.1010 c          1 C0R       0.575300
      4 C4           4.3710    -0.8170     0.6170 ce         1 C0R      -0.320200
      5 C5           3.2080    -0.7950    -0.0570 c2         1 C0R      -0.036400
      6 C6           2.6860    -2.0370    -0.7080 c6         1 C0R      -0.051200
      7 C7           1.2290    -2.3050    -0.3600 c6         1 C0R      -0.071400
      8 C8           0.3320    -1.0910    -0.5870 c6         1 C0R      -0.040700
      9 C9           0.9190     0.1340     0.1380 c6         1 C0R      -0.036700
     10 C10          2.3910     0.4640    -0.2680 c6         1 C0R      -0.000800
     11 C11         -0.0190     1.3510     0.1690 c6         1 C0R       0.183300
     12 C12         -1.4410     0.9780     0.6170 c6         1 C0R      -0.104400
     13 C13         -2.0320    -0.2020    -0.1470 c5         1 C0R      -0.027000
     14 C14         -1.0500    -1.3710    -0.0140 c5         1 C0R      -0.065700
     15 C15         -1.8350    -2.5810    -0.5110 c5         1 C0R      -0.069400
     16 C16         -3.2840    -2.2930    -0.0580 c5         1 C0R      -0.066400
     17 C17         -3.2780    -0.8610     0.5160 c5         1 C0R      -0.169700
     18 C18         -2.3420     0.1430    -1.6080 c3         1 C0R      -0.087100
     19 C19          2.5730     0.8530    -1.7490 c3         1 C0R      -0.074100
     20 C20         -4.5700    -0.1060     0.3340 c          1 C0R       0.574100
     21 C21         -4.8720     0.9050     1.4110 c3         1 C0R       0.055600
     22 O1           6.0790     0.3250     1.7440 o          1 C0R      -0.530100
     23 O2          -0.0170     1.9940    -1.0880 oh         1 C0R      -0.655000
     24 O3          -5.3250    -0.2860    -0.5930 o          1 C0R      -0.483100
     25 O4          -6.0380     1.6070     1.1060 oh         1 C0R      -0.627000
     26 H11A         2.5470     1.4190     1.6630 hc         1 C0R       0.047700
     27 H12          2.4900     2.5420     0.3210 hc         1 C0R       0.047700
     28 H21          4.7450     2.4860     1.3580 hc         1 C0R       0.070700
     29 H22          4.8220     1.9390    -0.3070 hc         1 C0R       0.070700
     30 H4           4.8950    -1.7580     0.7540 ha         1 C0R       0.195000
     31 H61          3.3080    -2.8930    -0.4420 hc         1 C0R       0.055700
     32 H62          2.7780    -1.9120    -1.7920 hc         1 C0R       0.055700
     33 H71          1.1600    -2.6000     0.6930 hc         1 C0R       0.044700
     34 H72          0.8700    -3.1560    -0.9440 hc         1 C0R       0.044700
     35 H8           0.2550    -0.8990    -1.6630 hc         1 C0R       0.068700
     36 H9           0.9850    -0.1700     1.1950 hc         1 C0R       0.046700
     37 H11          0.3700     2.0390     0.9320 h1         1 C0R       0.026700
     38 H121        -2.0710     1.8730     0.5450 hc         1 C0R       0.042700
     39 H122        -1.4030     0.7240     1.6820 hc         1 C0R       0.042700
     40 H14         -0.9000    -1.5160     1.0670 hc         1 C0R       0.040700
     41 H151        -1.7700    -2.6710    -1.5980 hc         1 C0R       0.047200
     42 H152        -1.4580    -3.5150    -0.0940 hc         1 C0R       0.047200
     43 H161        -3.9800    -2.3730    -0.8920 hc         1 C0R       0.055700
     44 H162        -3.6210    -3.0000     0.7000 hc         1 C0R       0.055700
     45 H17         -3.0720    -0.9020     1.5920 hc         1 C0R       0.054700
     46 H181        -1.4400     0.3480    -2.1760 hc         1 C0R       0.045700
     47 H182        -2.8760    -0.6620    -2.1140 hc         1 C0R       0.045700
     48 H183        -2.9700     1.0340    -1.6700 hc         1 C0R       0.045700
     49 H191         3.6290     0.8260    -2.0240 hc         1 C0R       0.041700
     50 H192         2.0510     0.1730    -2.4220 hc         1 C0R       0.041700
     51 H193         2.2010     1.8540    -1.9410 hc         1 C0R       0.041700
     52 H211        -4.9400     0.3470     2.3570 h1         1 C0R       0.033200
     53 H212        -3.9940     1.5590     1.5210 h1         1 C0R       0.033200
     54 HO2         -0.6630     2.7070    -1.0570 ho         1 C0R       0.441000
     55 HO4         -6.2030     2.2310     1.8190 ho         1 C0R       0.444000
@<TRIPOS>BOND
     1     1     2 1   
     2     1    10 1   
     3     1    26 1   
     4     1    27 1   
     5     2     3 1   
     6     2    28 1   
     7     2    29 1   
     8     3     4 1   
     9     3    22 2   
    10     4     5 2   
    11     4    30 1   
    12     5     6 1   
    13     5    10 1   
    14     6     7 1   
    15     6    31 1   
    16     6    32 1   
    17     7     8 1   
    18     7    33 1   
    19     7    34 1   
    20     8     9 1   
    21     8    14 1   
    22     8    35 1   
    23     9    10 1   
    24     9    11 1   
    25     9    36 1   
    26    10    19 1   
    27    11    12 1   
    28    11    23 1   
    29    11    37 1   
    30    12    13 1   
    31    12    38 1   
    32    12    39 1   
    33    13    14 1   
    34    13    17 1   
    35    13    18 1   
    36    14    15 1   
    37    14    40 1   
    38    15    16 1   
    39    15    41 1   
    40    15    42 1   
    41    16    17 1   
    42    16    43 1   
    43    16    44 1   
    44    17    20 1   
    45    17    45 1   
    46    18    46 1   
    47    18    47 1   
    48    18    48 1   
    49    19    49 1   
    50    19    50 1   
    51    19    51 1   
    52    20    21 1   
    53    20    24 2   
    54    21    25 1   
    55    21    52 1   
    56    21    53 1   
    57    23    54 1   
    58    25    55 1   
@<TRIPOS>SUBSTRUCTURE
     1 C0R         1 TEMP              0 ****  ****    0 ROOT
