@<TRIPOS>MOLECULE
C0S
   38    40     1     0     0
SMALL
abcg2


@<TRIPOS>ATOM
      1 N3           0.8080    -1.2950    -0.5300 nj         1 C0S      -0.414800
      2 C4          -5.6090     0.3600     0.0800 ca         1 C0S      -0.151500
      3 N2          -3.3890     0.9850    -0.6940 nc         1 C0S      -0.367300
      4 C7          -4.1790     0.1300    -0.1150 cd         1 C0S       0.619500
      5 C6          -7.7410    -0.3970     0.9070 ca         1 C0S      -0.122000
      6 C9          -1.1520    -1.6850     0.0830 cy         1 C0S      -0.149000
      7 C8          -2.3230    -0.8000    -0.0760 cc         1 C0S       0.484300
      8 C1          -8.3360     0.7720     0.4550 ca         1 C0S      -0.085000
      9 C2          -7.5670     1.7370    -0.1860 ca         1 C0S      -0.122000
     10 C3          -6.2100     1.5350    -0.3730 ca         1 C0S      -0.066000
     11 C5          -6.3820    -0.6050     0.7220 ca         1 C0S      -0.066000
     12 N1          -3.5400    -1.0100     0.2890 nd         1 C0S      -0.707000
     13 O1          -2.1670     0.3750    -0.6700 os         1 C0S      -0.082700
     14 C10         -0.3080    -1.9340    -1.1980 cy         1 C0S       0.133500
     15 C11          0.1100    -1.0400     0.7190 cy         1 C0S       0.133500
     16 C12          2.0610    -1.1440    -0.9330 c          1 C0S       0.664100
     17 O2           2.5070    -1.4720    -2.0070 o          1 C0S      -0.508000
     18 H5          -8.3340    -1.1510     1.4070 ha         1 C0S       0.118500
     19 H6          -1.4740    -2.5960     0.5780 hc         1 C0S       0.108700
     20 H1          -9.3960     0.9330     0.6010 ha         1 C0S       0.116000
     21 H2          -8.0270     2.6500    -0.5420 ha         1 C0S       0.118500
     22 H3          -5.6210     2.2920    -0.8740 ha         1 C0S       0.132500
     23 H4          -5.9230    -1.5170     1.0770 ha         1 C0S       0.132500
     24 H8          -0.6420    -1.4190    -2.0990 h1         1 C0S       0.076450
     25 H7          -0.1490    -2.9880    -1.4220 h1         1 C0S       0.076450
     26 H10          0.5020    -1.5930     1.5720 h1         1 C0S       0.076450
     27 H9           0.0280     0.0150     0.9800 h1         1 C0S       0.076450
     28 O3           2.7920    -0.5470     0.0480 os         1 C0S      -0.437100
     29 C13          4.1370    -0.2670    -0.2150 c3         1 C0S       0.029300
     30 C14          4.3000     1.2510    -0.1430 c3         1 C0S       0.310000
     31 C15          4.9630    -1.0510     0.8040 c3         1 C0S       0.310000
     32 F3           4.7410    -2.3550     0.6370 f          1 C0S      -0.096667
     33 F1           6.2670    -0.8330     0.6480 f          1 C0S      -0.096667
     34 F2           4.6440    -0.7490     2.0620 f          1 C0S      -0.096667
     35 F4           3.9710     1.7480     1.0480 f          1 C0S      -0.096667
     36 F6           5.5520     1.6200    -0.4100 f          1 C0S      -0.096667
     37 F5           3.5020     1.8190    -1.0470 f          1 C0S      -0.096667
     38 H12          4.4410    -0.5920    -1.2170 h1         1 C0S       0.138700
@<TRIPOS>BOND
     1     1    14 1   
     2     1    15 1   
     3     1    16 1   
     4     2     4 1   
     5     2    10 ar  
     6     2    11 ar  
     7     3     4 2   
     8     3    13 1   
     9     4    12 1   
    10     5     8 ar  
    11     5    11 ar  
    12     5    18 1   
    13     6     7 1   
    14     6    14 1   
    15     6    15 1   
    16     6    19 1   
    17     7    12 2   
    18     7    13 1   
    19     8     9 ar  
    20     8    20 1   
    21     9    10 ar  
    22     9    21 1   
    23    10    22 1   
    24    11    23 1   
    25    14    24 1   
    26    14    25 1   
    27    15    26 1   
    28    15    27 1   
    29    16    17 2   
    30    16    28 1   
    31    28    29 1   
    32    29    30 1   
    33    29    31 1   
    34    29    38 1   
    35    30    35 1   
    36    30    36 1   
    37    30    37 1   
    38    31    32 1   
    39    31    33 1   
    40    31    34 1   
@<TRIPOS>SUBSTRUCTURE
     1 C0S         1 TEMP              0 ****  ****    0 ROOT
