@<TRIPOS>MOLECULE
C0S
   38    40     1     0     0
SMALL
No Charge or Current Charge


@<TRIPOS>ATOM
      1 N3           0.3980    -0.7060    -0.5220 nj         1 C0S      -0.414800
      2 C4          -5.6030     0.3580     0.2040 ca         1 C0S      -0.151500
      3 N2          -3.5700     1.3590     1.1810 nc         1 C0S      -0.367300
      4 C7          -4.1770     0.3300     0.6050 cd         1 C0S       0.619500
      5 C6          -7.5560    -0.7420    -0.7880 ca         1 C0S      -0.122000
      6 C9          -0.9600    -1.1580     0.9700 cy         1 C0S      -0.149000
      7 C8          -2.2210    -0.3630     0.8930 cc         1 C0S       0.484300
      8 C1          -8.3300     0.4070    -0.5650 ca         1 C0S      -0.085000
      9 C2          -7.7490     1.5320     0.0400 ca         1 C0S      -0.122000
     10 C3          -6.3970     1.5110     0.4220 ca         1 C0S      -0.066000
     11 C5          -6.2030    -0.7680    -0.4070 ca         1 C0S      -0.066000
     12 N1          -3.3720    -0.7710     0.4120 nd         1 C0S      -0.707000
     13 O1          -2.2500     0.9040     1.3860 os         1 C0S      -0.082700
     14 C10         -0.4500    -1.9190    -0.3040 cy         1 C0S       0.133500
     15 C11          0.4360    -0.4370     0.9470 cy         1 C0S       0.133500
     16 C12          1.6970    -1.2630    -0.7180 c          1 C0S       0.664100
     17 O2           2.0590    -2.3440    -1.1670 o          1 C0S      -0.508000
     18 H5          -8.0050    -1.6160    -1.2560 ha         1 C0S       0.118500
     19 H6          -1.1090    -1.8030     1.8410 hc         1 C0S       0.108700
     20 H1          -9.3780     0.4260    -0.8600 ha         1 C0S       0.116000
     21 H2          -8.3480     2.4240     0.2130 ha         1 C0S       0.118500
     22 H3          -5.9710     2.3970     0.8900 ha         1 C0S       0.132500
     23 H4          -5.6240    -1.6710    -0.5900 ha         1 C0S       0.132500
     24 H8          -1.2080    -2.0730    -1.0810 h1         1 C0S       0.076450
     25 H7           0.0560    -2.8620    -0.0580 h1         1 C0S       0.076450
     26 H10          1.2150    -0.9600     1.5210 h1         1 C0S       0.076450
     27 H9           0.4140     0.6290     1.2000 h1         1 C0S       0.076450
     28 O3           2.5900    -0.2230    -0.5970 os         1 C0S      -0.437100
     29 C13          4.0260    -0.4590    -0.7250 c3         1 C0S       0.029300
     30 C14          4.6760     0.8610    -1.2380 c3         1 C0S       0.310000
     31 C15          4.5930    -0.9810     0.6370 c3         1 C0S       0.310000
     32 F3           4.0440    -2.1690     0.9770 f          1 C0S      -0.096667
     33 F1           5.9320    -1.1650     0.5780 f          1 C0S      -0.096667
     34 F2           4.3380    -0.1160     1.6460 f          1 C0S      -0.096667
     35 F4           4.5200     1.8770    -0.3570 f          1 C0S      -0.096667
     36 F6           6.0010     0.7080    -1.4660 f          1 C0S      -0.096667
     37 F5           4.1100     1.2440    -2.4060 f          1 C0S      -0.096667
     38 H12          4.2330    -1.2190    -1.4910 h1         1 C0S       0.138700
@<TRIPOS>BOND
     1     1    14 1   
     2     1    15 1   
     3     1    16 1   
     4     2     4 1   
     5     2    10 ar  
     6     2    11 ar  
     7     3     4 2   
     8     3    13 1   
     9     4    12 1   
    10     5     8 ar  
    11     5    11 ar  
    12     5    18 1   
    13     6     7 1   
    14     6    14 1   
    15     6    15 1   
    16     6    19 1   
    17     7    12 2   
    18     7    13 1   
    19     8     9 ar  
    20     8    20 1   
    21     9    10 ar  
    22     9    21 1   
    23    10    22 1   
    24    11    23 1   
    25    14    24 1   
    26    14    25 1   
    27    15    26 1   
    28    15    27 1   
    29    16    17 2   
    30    16    28 1   
    31    28    29 1   
    32    29    30 1   
    33    29    31 1   
    34    29    38 1   
    35    30    35 1   
    36    30    36 1   
    37    30    37 1   
    38    31    32 1   
    39    31    33 1   
    40    31    34 1   
@<TRIPOS>SUBSTRUCTURE
     1 C0S         1 TEMP              0 ****  ****    0 ROOT
