@<TRIPOS>MOLECULE
C0T
   66    68     1     0     0
SMALL
No Charge or Current Charge


@<TRIPOS>ATOM
      1 C1           4.1320    -1.5520    -0.6450 c          1 C0T       0.589300
      2 N1           3.6670     0.7010    -1.5700 ns         1 C0T      -0.427100
      3 O1           5.2660    -1.5640    -1.1110 o          1 C0T      -0.494100
      4 S1          -1.3760    -3.9790    -1.7120 ss         1 C0T      -0.265000
      5 C2           3.1110    -0.4580    -0.9520 ce         1 C0T      -0.026600
      6 N2          -4.9100     3.8980     0.4250 n7         1 C0T      -0.614900
      7 O2           5.4880     1.2360    -0.2610 o          1 C0T      -0.516000
      8 S2          -2.5170    -4.6770    -0.0970 ss         1 C0T      -0.012000
      9 C3           1.8130    -0.5530    -0.5120 cf         1 C0T      -0.038200
     10 O3           4.8180     2.5400    -2.0330 os         1 C0T      -0.455100
     11 S3          -3.7400    -3.1060     0.5580 ss         1 C0T      -0.226000
     12 C4           1.4100    -1.7850     0.2140 cf         1 C0T      -0.074200
     13 O4           2.1340    -3.4690     1.9320 oh         1 C0T      -0.640000
     14 C5           2.5070    -2.3130     1.1910 c6         1 C0T       0.336300
     15 O5          -0.4970     0.4090    -0.5200 os         1 C0T      -0.447000
     16 C6           3.7090    -2.6750     0.3100 c6         1 C0T      -0.207400
     17 O6          -5.4970     4.0560     1.7770 oh         1 C0T      -0.480300
     18 C7           4.7620     1.4470    -1.2200 c          1 C0T       0.650100
     19 O7          -1.6520     1.9450     0.8380 os         1 C0T      -0.460000
     20 C8           5.8580     3.5050    -1.7880 c3         1 C0T       0.170900
     21 O8          -2.6940     0.5360    -2.4650 oh         1 C0T      -0.724000
     22 C9           2.8420    -1.2880     2.2000 c1         1 C0T      -0.161100
     23 O9          -5.0770     1.7930    -1.5760 oh         1 C0T      -0.660000
     24 C10          3.0100    -0.3330     2.9340 cg         1 C0T      -0.117300
     25 C11          3.0190     0.9520     3.5830 ce         1 C0T      -0.032700
     26 C12          2.3930     2.0300     3.0090 cf         1 C0T      -0.055700
     27 C13          1.7350     1.8850     1.7440 ch         1 C0T      -0.104300
     28 C14          1.2940     1.4680     0.6930 c1         1 C0T      -0.177100
     29 C15          0.9100     0.7170    -0.5130 c3         1 C0T       0.330600
     30 C16          0.3090    -2.5460    -0.0570 c2         1 C0T      -0.138200
     31 C17         -0.7320    -2.3450    -1.1370 c3         1 C0T       0.105800
     32 C18         -4.6490    -2.5880    -0.9640 c3         1 C0T       0.029900
     33 C19         -1.4410     1.5000    -0.5140 c6         1 C0T       0.370300
     34 C20         -2.8070     1.0260    -1.1040 c6         1 C0T       0.104300
     35 C21         -3.8090     2.2110    -1.0440 c6         1 C0T       0.168300
     36 C22         -3.9510     2.7510     0.4150 c6         1 C0T       0.110500
     37 C23         -2.5180     3.0950     0.9600 c6         1 C0T       0.189300
     38 C24         -2.4740     3.4940     2.4570 c3         1 C0T      -0.078100
     39 HN1          3.0780     1.1460    -2.2620 hn         1 C0T       0.341500
     40 HO4          2.7350    -3.4860     2.7060 ho         1 C0T       0.461000
     41 H6           3.4140    -3.5120    -0.3350 hc         1 C0T       0.087200
     42 H6A          4.5820    -3.0220     0.8790 hc         1 C0T       0.087200
     43 H8           5.7930     4.3280    -2.5100 h1         1 C0T       0.049700
     44 H8A          5.7680     3.9300    -0.7800 h1         1 C0T       0.049700
     45 H8B          6.8490     3.0440    -1.8840 h1         1 C0T       0.049700
     46 HO8         -1.8160     0.0950    -2.5380 ho         1 C0T       0.518000
     47 HO9         -4.8380     1.2070    -2.3320 ho         1 C0T       0.465000
     48 H11          3.5270     1.0480     4.5430 ha         1 C0T       0.199000
     49 H12          2.3940     3.0050     3.5010 ha         1 C0T       0.198000
     50 H15          1.1640     1.3080    -1.4010 h1         1 C0T       0.055700
     51 H16          0.1530    -3.4670     0.5030 ha         1 C0T       0.213000
     52 H17         -0.2900    -1.8230    -1.9940 h1         1 C0T       0.086200
     53 H17A        -1.5740    -1.7570    -0.7540 h1         1 C0T       0.086200
     54 H18         -3.9370    -2.2490    -1.7270 h1         1 C0T       0.073033
     55 H18A        -5.2240    -3.4350    -1.3580 h1         1 C0T       0.073033
     56 H18B        -5.3350    -1.7670    -0.7220 h1         1 C0T       0.073033
     57 H19         -1.0490     2.3280    -1.1240 h2         1 C0T       0.035700
     58 H20         -3.1830     0.2250    -0.4500 h1         1 C0T       0.071700
     59 H21         -3.4030     3.0230    -1.6670 h1         1 C0T       0.049700
     60 H22         -4.3650     1.9350     1.0260 h1         1 C0T       0.082700
     61 H23         -2.0860     3.9190     0.3730 h1         1 C0T       0.040700
     62 H24         -2.9840     2.7520     3.0830 hc         1 C0T       0.049033
     63 H24A        -1.4390     3.5780     2.8090 hc         1 C0T       0.049033
     64 H24B        -2.9510     4.4670     2.6240 hc         1 C0T       0.049033
     65 H27         -5.7050     3.6500    -0.1950 hn         1 C0T       0.432000
     66 H28         -5.5070     5.0290     1.9610 ho         1 C0T       0.454000
@<TRIPOS>BOND
     1     1     3 2   
     2     1     5 1   
     3     1    16 1   
     4     2     5 1   
     5     2    18 1   
     6     2    39 1   
     7     4     8 1   
     8     4    31 1   
     9     5     9 2   
    10     6    17 1   
    11     6    36 1   
    12     6    65 1   
    13     7    18 2   
    14     8    11 1   
    15     9    12 1   
    16     9    29 1   
    17    10    18 1   
    18    10    20 1   
    19    11    32 1   
    20    12    14 1   
    21    12    30 2   
    22    13    14 1   
    23    13    40 1   
    24    14    16 1   
    25    14    22 1   
    26    15    29 1   
    27    15    33 1   
    28    16    41 1   
    29    16    42 1   
    30    17    66 1   
    31    19    33 1   
    32    19    37 1   
    33    20    43 1   
    34    20    44 1   
    35    20    45 1   
    36    21    34 1   
    37    21    46 1   
    38    22    24 3   
    39    23    35 1   
    40    23    47 1   
    41    24    25 1   
    42    25    26 2   
    43    25    48 1   
    44    26    27 1   
    45    26    49 1   
    46    27    28 3   
    47    28    29 1   
    48    29    50 1   
    49    30    31 1   
    50    30    51 1   
    51    31    52 1   
    52    31    53 1   
    53    32    54 1   
    54    32    55 1   
    55    32    56 1   
    56    33    34 1   
    57    33    57 1   
    58    34    35 1   
    59    34    58 1   
    60    35    36 1   
    61    35    59 1   
    62    36    37 1   
    63    36    60 1   
    64    37    38 1   
    65    37    61 1   
    66    38    62 1   
    67    38    63 1   
    68    38    64 1   
@<TRIPOS>SUBSTRUCTURE
     1 C0T         1 TEMP              0 ****  ****    0 ROOT
