@<TRIPOS>MOLECULE
C0T
   66    68     1     0     0
SMALL
abcg2


@<TRIPOS>ATOM
      1 C1           3.8340    -1.5570    -0.5870 c          1 C0T       0.589300
      2 N1           3.4780     0.6340    -1.6330 ns         1 C0T      -0.427100
      3 O1           4.8920    -1.6900    -1.1600 o          1 C0T      -0.494100
      4 S1          -1.1580    -3.7370    -1.8450 ss         1 C0T      -0.265000
      5 C2           2.9290    -0.4270    -0.9090 ce         1 C0T      -0.026600
      6 N2          -4.5540     4.1250     0.8040 n7         1 C0T      -0.614900
      7 O2           5.0030     1.1500    -0.0300 o          1 C0T      -0.516000
      8 S2          -2.2420    -4.7850    -0.4420 ss         1 C0T      -0.012000
      9 C3           1.6530    -0.4200    -0.4840 cf         1 C0T      -0.038200
     10 O3           4.8960     2.2990    -1.9650 os         1 C0T      -0.455100
     11 S3          -4.1320    -3.9780    -0.4970 ss         1 C0T      -0.226000
     12 C4           1.1660    -1.5560     0.3210 cf         1 C0T      -0.074200
     13 O4           1.6840    -3.0400     2.1260 oh         1 C0T      -0.640000
     14 C5           2.2130    -2.0200     1.3350 c6         1 C0T       0.336300
     15 O5          -0.5180     0.6180    -0.4290 os         1 C0T      -0.447000
     16 C6           3.3830    -2.5280     0.4730 c6         1 C0T      -0.207400
     17 O6          -5.0920     4.2230     2.1010 oh         1 C0T      -0.480300
     18 C7           4.5100     1.3470    -1.1160 c          1 C0T       0.650100
     19 O7          -1.4740     2.0980     0.9670 os         1 C0T      -0.460000
     20 C8           5.9460     3.1560    -1.5270 c3         1 C0T       0.170900
     21 O8          -2.6570     1.0560    -2.3040 oh         1 C0T      -0.724000
     22 C9           2.6340    -0.8760     2.1600 c1         1 C0T      -0.161100
     23 O9          -4.9970     2.1250    -1.1050 oh         1 C0T      -0.660000
     24 C10          2.9540     0.1360     2.7320 cg         1 C0T      -0.117300
     25 C11          3.2010     1.4450     3.2170 ce         1 C0T      -0.032700
     26 C12          2.7320     2.5020     2.5250 cf         1 C0T      -0.055700
     27 C13          1.9980     2.2480     1.3410 ch         1 C0T      -0.104300
     28 C14          1.4170     1.7470     0.4120 c1         1 C0T      -0.177100
     29 C15          0.8510     0.8760    -0.6220 c3         1 C0T       0.330600
     30 C16          0.0530    -2.2620     0.1260 c2         1 C0T      -0.138200
     31 C17         -0.9100    -2.1340    -1.0000 c3         1 C0T       0.105800
     32 C18         -4.8270    -4.7440    -1.9820 c3         1 C0T       0.029900
     33 C19         -1.3500     1.7250    -0.3680 c6         1 C0T       0.370300
     34 C20         -2.7140     1.3330    -0.9290 c6         1 C0T       0.104300
     35 C21         -3.6880     2.4900    -0.7420 c6         1 C0T       0.168300
     36 C22         -3.7060     2.9480     0.7160 c6         1 C0T       0.110500
     37 C23         -2.2690     3.2550     1.1570 c6         1 C0T       0.189300
     38 C24         -2.1140     3.6580     2.6080 c3         1 C0T      -0.078100
     39 HN1          3.0800     0.8940    -2.5250 hn         1 C0T       0.341500
     40 HO4          2.3960    -3.4420     2.6380 ho         1 C0T       0.461000
     41 H6           3.0460    -3.4320    -0.0410 hc         1 C0T       0.087200
     42 H6A          4.2440    -2.7970     1.0900 hc         1 C0T       0.087200
     43 H8           6.0850     3.8840    -2.3210 h1         1 C0T       0.049700
     44 H8A          5.6820     3.6750    -0.6050 h1         1 C0T       0.049700
     45 H8B          6.8750     2.6070    -1.3760 h1         1 C0T       0.049700
     46 HO8         -2.1520     0.2500    -2.4440 ho         1 C0T       0.518000
     47 HO9         -5.0290     2.0080    -2.0590 ho         1 C0T       0.465000
     48 H11          3.7620     1.5880     4.1320 ha         1 C0T       0.199000
     49 H12          2.9080     3.5140     2.8650 ha         1 C0T       0.198000
     50 H15          1.0050     1.3140    -1.6140 h1         1 C0T       0.055700
     51 H16         -0.1580    -3.0700     0.8160 ha         1 C0T       0.213000
     52 H17         -0.5610    -1.4710    -1.7920 h1         1 C0T       0.086200
     53 H17A        -1.8940    -1.7940    -0.6710 h1         1 C0T       0.086200
     54 H18         -4.2470    -4.4660    -2.8590 h1         1 C0T       0.073033
     55 H18A        -4.8720    -5.8250    -1.8800 h1         1 C0T       0.073033
     56 H18B        -5.8370    -4.3510    -2.0900 h1         1 C0T       0.073033
     57 H19         -0.9400     2.5610    -0.9680 h2         1 C0T       0.035700
     58 H20         -3.0830     0.4700    -0.3510 h1         1 C0T       0.071700
     59 H21         -3.3390     3.3330    -1.3610 h1         1 C0T       0.049700
     60 H22         -4.0970     2.1240     1.3340 h1         1 C0T       0.082700
     61 H23         -1.8900     4.0750     0.5250 h1         1 C0T       0.040700
     62 H24         -2.5830     2.9400     3.2820 hc         1 C0T       0.049033
     63 H24A        -1.0550     3.7230     2.8540 hc         1 C0T       0.049033
     64 H24B        -2.5480     4.6370     2.7940 hc         1 C0T       0.049033
     65 H27         -5.3610     3.9700     0.2100 hn         1 C0T       0.432000
     66 H28         -4.8460     5.1040     2.3910 ho         1 C0T       0.454000
@<TRIPOS>BOND
     1     1     3 2   
     2     1     5 1   
     3     1    16 1   
     4     2     5 1   
     5     2    18 1   
     6     2    39 1   
     7     4     8 1   
     8     4    31 1   
     9     5     9 2   
    10     6    17 1   
    11     6    36 1   
    12     6    65 1   
    13     7    18 2   
    14     8    11 1   
    15     9    12 1   
    16     9    29 1   
    17    10    18 1   
    18    10    20 1   
    19    11    32 1   
    20    12    14 1   
    21    12    30 2   
    22    13    14 1   
    23    13    40 1   
    24    14    16 1   
    25    14    22 1   
    26    15    29 1   
    27    15    33 1   
    28    16    41 1   
    29    16    42 1   
    30    17    66 1   
    31    19    33 1   
    32    19    37 1   
    33    20    43 1   
    34    20    44 1   
    35    20    45 1   
    36    21    34 1   
    37    21    46 1   
    38    22    24 3   
    39    23    35 1   
    40    23    47 1   
    41    24    25 1   
    42    25    26 2   
    43    25    48 1   
    44    26    27 1   
    45    26    49 1   
    46    27    28 3   
    47    28    29 1   
    48    29    50 1   
    49    30    31 1   
    50    30    51 1   
    51    31    52 1   
    52    31    53 1   
    53    32    54 1   
    54    32    55 1   
    55    32    56 1   
    56    33    34 1   
    57    33    57 1   
    58    34    35 1   
    59    34    58 1   
    60    35    36 1   
    61    35    59 1   
    62    36    37 1   
    63    36    60 1   
    64    37    38 1   
    65    37    61 1   
    66    38    62 1   
    67    38    63 1   
    68    38    64 1   
@<TRIPOS>SUBSTRUCTURE
     1 C0T         1 TEMP              0 ****  ****    0 ROOT
