@<TRIPOS>MOLECULE
C0V
   27    28     1     0     0
SMALL
abcg2


@<TRIPOS>ATOM
      1 C10         -0.6570     1.2310    -0.2990 ca         1 C0V      -0.060000
      2 C13         -4.3670     1.4140    -0.0680 ca         1 C0V      -0.102000
      3 C15         -5.2260    -0.8280     0.1790 ca         1 C0V      -0.129000
      4 C17         -2.8410    -0.4930    -0.0200 ca         1 C0V      -0.050000
      5 C02          4.5210     0.6180     0.3620 c          1 C0V       0.675200
      6 C04          3.3530    -0.3200     0.0100 ce         1 C0V       0.098900
      7 C06          2.0590     0.0730     0.0480 cf         1 C0V      -0.456200
      8 C09         -0.4400    -0.1660    -0.2040 ca         1 C0V      -0.129600
      9 C11         -1.9210     1.7490    -0.2660 ca         1 C0V      -0.133000
     10 C12         -3.0480     0.9070    -0.1190 ca         1 C0V      -0.030000
     11 C14         -5.4310     0.5650     0.0780 ca         1 C0V      -0.119000
     12 C16         -3.9620    -1.3450     0.1310 ca         1 C0V      -0.088000
     13 C18         -1.5260    -1.0000    -0.0770 ca         1 C0V      -0.069000
     14 O01          4.2800     1.7730     0.7120 o          1 C0V      -0.687500
     15 O03          5.6260     0.0420     0.2370 o          1 C0V      -0.687500
     16 O05          3.7730    -1.5180    -0.3280 oh         1 C0V      -0.526100
     17 O08          1.0360    -1.9690    -0.5250 o          1 C0V      -0.580100
     18 H1           0.1770     1.9080    -0.4230 ha         1 C0V       0.132000
     19 H2          -4.5220     2.4830    -0.1450 ha         1 C0V       0.105000
     20 H3          -6.0780    -1.4860     0.2950 ha         1 C0V       0.101000
     21 H4           1.8920     1.0950     0.3520 ha         1 C0V       0.199000
     22 H6          -2.0700     2.8180    -0.3530 ha         1 C0V       0.105000
     23 H7          -6.4380     0.9600     0.1160 ha         1 C0V       0.099000
     24 H8          -3.8030    -2.4140     0.2070 ha         1 C0V       0.110000
     25 H9          -1.3820    -2.0710    -0.0080 ha         1 C0V       0.130000
     26 H5           4.7560    -1.4240    -0.2500 ho         1 C0V       0.498000
     27 C07          0.9270    -0.7790    -0.2550 c          1 C0V       0.592900
@<TRIPOS>BOND
     1     1     8 ar  
     2     1     9 ar  
     3     1    18 1   
     4     2    10 ar  
     5     2    11 ar  
     6     2    19 1   
     7     3    11 ar  
     8     3    12 ar  
     9     3    20 1   
    10     4    10 ar  
    11     4    12 ar  
    12     4    13 ar  
    13     5     6 1   
    14     5    14 1   
    15     5    15 1   
    16     6     7 2   
    17     6    16 1   
    18     7    21 1   
    19     7    27 1   
    20     8    13 ar  
    21     8    27 1   
    22     9    10 ar  
    23     9    22 1   
    24    11    23 1   
    25    12    24 1   
    26    13    25 1   
    27    16    26 1   
    28    17    27 2   
@<TRIPOS>SUBSTRUCTURE
     1 C0V         1 TEMP              0 ****  ****    0 ROOT
