@<TRIPOS>MOLECULE
C0V
   27    28     1     0     0
SMALL
No Charge or Current Charge


@<TRIPOS>ATOM
      1 C10         -0.6640     1.1980    -0.4650 ca         1 C0V      -0.060000
      2 C13         -4.3630     1.4330    -0.0850 ca         1 C0V      -0.102000
      3 C15         -5.2680    -0.7950     0.2930 ca         1 C0V      -0.129000
      4 C17         -2.8670    -0.4930    -0.0090 ca         1 C0V      -0.050000
      5 C02          4.5550     0.6110     0.5590 c          1 C0V       0.675200
      6 C04          3.4290    -0.2950     0.0330 ce         1 C0V       0.098900
      7 C06          2.0960     0.0240     0.0820 cf         1 C0V      -0.456200
      8 C09         -0.4520    -0.1910    -0.3050 ca         1 C0V      -0.129600
      9 C11         -1.9610     1.7350    -0.3910 ca         1 C0V      -0.133000
     10 C12         -3.0640     0.8960    -0.1600 ca         1 C0V      -0.030000
     11 C14         -5.4630     0.5880     0.1420 ca         1 C0V      -0.119000
     12 C16         -3.9720    -1.3360     0.2170 ca         1 C0V      -0.088000
     13 C18         -1.5680    -1.0300    -0.0860 ca         1 C0V      -0.069000
     14 O01          4.2830     1.6930     1.0630 o          1 C0V      -0.687500
     15 O03          5.7020     0.1920     0.4450 o          1 C0V      -0.687500
     16 O05          3.8650    -1.4700    -0.5060 oh         1 C0V      -0.526100
     17 O08          1.0770    -1.9250    -0.8280 o          1 C0V      -0.580100
     18 H1           0.1690     1.8670    -0.6680 ha         1 C0V       0.132000
     19 H2          -4.5220     2.5030    -0.2010 ha         1 C0V       0.105000
     20 H3          -6.1190    -1.4490     0.4680 ha         1 C0V       0.101000
     21 H4           1.8380     0.9790     0.5320 ha         1 C0V       0.199000
     22 H6          -2.1050     2.8060    -0.5180 ha         1 C0V       0.105000
     23 H7          -6.4660     1.0050     0.2010 ha         1 C0V       0.099000
     24 H8          -3.8300    -2.4080     0.3350 ha         1 C0V       0.110000
     25 H9          -1.4220    -2.1010     0.0330 ha         1 C0V       0.130000
     26 H5           4.8460    -1.4220    -0.4060 ho         1 C0V       0.498000
     27 C07          0.9330    -0.7910    -0.3880 c          1 C0V       0.592900
@<TRIPOS>BOND
     1     1     8 ar  
     2     1     9 ar  
     3     1    18 1   
     4     2    10 ar  
     5     2    11 ar  
     6     2    19 1   
     7     3    11 ar  
     8     3    12 ar  
     9     3    20 1   
    10     4    10 ar  
    11     4    12 ar  
    12     4    13 ar  
    13     5     6 1   
    14     5    14 1   
    15     5    15 1   
    16     6     7 2   
    17     6    16 1   
    18     7    21 1   
    19     7    27 1   
    20     8    13 ar  
    21     8    27 1   
    22     9    10 ar  
    23     9    22 1   
    24    11    23 1   
    25    12    24 1   
    26    13    25 1   
    27    16    26 1   
    28    17    27 2   
@<TRIPOS>SUBSTRUCTURE
     1 C0V         1 TEMP              0 ****  ****    0 ROOT
