@<TRIPOS>MOLECULE
C0W
   22    23     1     0     0
SMALL
abcg2


@<TRIPOS>ATOM
      1 C4          -0.5040    -1.5340     0.5790 cc         1 C0W      -0.186400
      2 C5          -2.6380    -0.3760     0.1150 ca         1 C0W      -0.154000
      3 C6          -3.9310     0.0830    -0.1250 ca         1 C0W      -0.095000
      4 C7          -4.1050     1.4260    -0.3990 ca         1 C0W      -0.115000
      5 C8          -3.0100     2.2980    -0.4370 ca         1 C0W      -0.134000
      6 C9          -1.7300     1.8370    -0.2040 ca         1 C0W      -0.054000
      7 C10         -1.5270     0.4820     0.0810 ca         1 C0W      -0.060800
      8 C            3.4420     0.9500     0.1870 c          1 C0W       0.718200
      9 O            4.4940     0.4600    -0.2640 o          1 C0W      -0.698000
     10 C1           2.1950     0.0940    -0.0360 ce         1 C0W       0.007400
     11 C3          -0.2870    -0.2110     0.3490 cd         1 C0W       0.018800
     12 O1           3.2960     2.0250     0.7900 o          1 C0W      -0.698000
     13 S            2.5940    -1.3590    -0.9410 sh         1 C0W      -0.293400
     14 S1          -2.1620    -2.0020     0.4790 ss         1 C0W      -0.008600
     15 H1           0.2320    -2.2770     0.8470 h4         1 C0W       0.221000
     16 H2          -4.7760    -0.5920    -0.0980 ha         1 C0W       0.108000
     17 H3          -5.1000     1.8070    -0.5880 ha         1 C0W       0.098000
     18 H4          -3.1710     3.3460    -0.6540 ha         1 C0W       0.104000
     19 H5          -0.8900     2.5180    -0.2470 ha         1 C0W       0.134000
     20 H7           0.9800     1.4560     0.8900 ha         1 C0W       0.212000
     21 H8           1.3500    -1.8290    -1.1110 hs         1 C0W       0.132800
     22 C2           0.9950     0.4790     0.4160 cf         1 C0W      -0.258000
@<TRIPOS>BOND
     1     1    11 2   
     2     1    14 1   
     3     1    15 1   
     4     2     3 ar  
     5     2     7 ar  
     6     2    14 1   
     7     3     4 ar  
     8     3    16 1   
     9     4     5 ar  
    10     4    17 1   
    11     5     6 ar  
    12     5    18 1   
    13     6     7 ar  
    14     6    19 1   
    15     7    11 1   
    16     8     9 1   
    17     8    10 1   
    18     8    12 1   
    19    10    13 1   
    20    10    22 2   
    21    11    22 1   
    22    13    21 1   
    23    20    22 1   
@<TRIPOS>SUBSTRUCTURE
     1 C0W         1 TEMP              0 ****  ****    0 ROOT
