@<TRIPOS>MOLECULE
C0W
   22    23     1     0     0
SMALL
No Charge or Current Charge


@<TRIPOS>ATOM
      1 C4          -0.4520    -1.5740     0.7010 cc         1 C0W      -0.186400
      2 C5          -2.5870    -0.4010     0.1200 ca         1 C0W      -0.154000
      3 C6          -3.8810     0.0540    -0.1780 ca         1 C0W      -0.095000
      4 C7          -4.0670     1.4160    -0.4860 ca         1 C0W      -0.115000
      5 C8          -2.9660     2.3000    -0.4940 ca         1 C0W      -0.134000
      6 C9          -1.6730     1.8250    -0.1930 ca         1 C0W      -0.054000
      7 C10         -1.5100     0.4630     0.1150 ca         1 C0W      -0.060800
      8 C            3.4550     0.9810     0.1290 c          1 C0W       0.718200
      9 O            4.4810     0.6490    -0.4520 o          1 C0W      -0.698000
     10 C1           2.1910     0.1410    -0.0620 ce         1 C0W       0.007400
     11 C3          -0.2810    -0.2270     0.4470 cd         1 C0W       0.018800
     12 O1           3.4070     1.9630     0.8600 o          1 C0W      -0.698000
     13 S            2.2700    -1.3100    -1.1580 sh         1 C0W      -0.293400
     14 S1          -2.1540    -2.0810     0.5230 ss         1 C0W      -0.008600
     15 H1           0.2920    -2.3050     0.9920 h4         1 C0W       0.221000
     16 H2          -4.7240    -0.6320    -0.1730 ha         1 C0W       0.108000
     17 H3          -5.0620     1.7870    -0.7190 ha         1 C0W       0.098000
     18 H4          -3.1150     3.3500    -0.7350 ha         1 C0W       0.104000
     19 H5          -0.8220     2.5010    -0.2030 ha         1 C0W       0.134000
     20 H7           0.9790     1.3670     1.1560 ha         1 C0W       0.212000
     21 H8           0.9600    -1.6460    -1.1090 hs         1 C0W       0.132800
     22 C2           1.0070     0.4590     0.5510 cf         1 C0W      -0.258000
@<TRIPOS>BOND
     1     1    11 2   
     2     1    14 1   
     3     1    15 1   
     4     2     3 ar  
     5     2     7 ar  
     6     2    14 1   
     7     3     4 ar  
     8     3    16 1   
     9     4     5 ar  
    10     4    17 1   
    11     5     6 ar  
    12     5    18 1   
    13     6     7 ar  
    14     6    19 1   
    15     7    11 1   
    16     8     9 1   
    17     8    10 1   
    18     8    12 1   
    19    10    13 1   
    20    10    22 2   
    21    11    22 1   
    22    13    21 1   
    23    20    22 1   
@<TRIPOS>SUBSTRUCTURE
     1 C0W         1 TEMP              0 ****  ****    0 ROOT
