@<TRIPOS>MOLECULE
C0X
   62    61     1     0     0
SMALL
No Charge or Current Charge


@<TRIPOS>ATOM
      1 C15         -1.1080     2.3480    -1.3840 c3         1 C0X       0.205800
      2 C17         -3.4710     1.7100    -1.5430 c3         1 C0X       0.025300
      3 C14          0.2500     1.7250    -1.1320 c2         1 C0X      -0.182200
      4 C13          7.8640    -2.5530     1.8460 c3         1 C0X      -0.054400
      5 C12         10.0820    -2.9890     0.7250 c3         1 C0X      -0.054400
      6 C1           0.1910     1.7600     1.4100 c3         1 C0X      -0.050900
      7 C2           0.8300     1.4720     0.0580 c2         1 C0X      -0.137400
      8 C4           3.3170     1.8300     0.5530 c3         1 C0X      -0.043200
      9 C6           5.5410     1.0370    -0.4670 c2         1 C0X      -0.130400
     10 C7           5.2660     1.4860    -1.8980 c3         1 C0X      -0.049900
     11 C8           6.9120     0.3990    -0.2950 c3         1 C0X      -0.033200
     12 C9           6.9670    -1.0650    -0.7850 c3         1 C0X      -0.039200
     13 C24         -6.7050     0.1910     1.5790 c3         1 C0X       0.193400
     14 O23         -6.8180    -0.6670     0.4340 os         1 C0X      -0.598900
     15 C3           2.2060     0.8290     0.1670 c3         1 C0X      -0.030200
     16 C5           4.6910     1.1850     0.5680 c2         1 C0X      -0.204200
     17 C10          8.3150    -1.7100    -0.5180 c2         1 C0X      -0.217200
     18 C11          8.7070    -2.3610     0.5940 c2         1 C0X      -0.119400
     19 O16         -2.1030     1.3230    -1.2040 os         1 C0X      -0.443000
     20 C18         -4.3280     0.4250    -1.6460 c3         1 C0X       0.233600
     21 O19         -4.4580    -0.1740    -0.3500 os         1 C0X      -0.568400
     22 P20         -5.5010    -1.3870    -0.1610 p5         1 C0X       1.368200
     23 O21         -4.9060    -2.1820     1.1120 os         1 C0X      -0.598900
     24 C22         -5.1200    -3.5950     1.2160 c3         1 C0X       0.193400
     25 O25         -5.7090    -2.2260    -1.3750 o          1 C0X      -0.585000
     26 C26         -4.1500     2.7320    -0.5660 c          1 C0X       0.715000
     27 O27         -5.1890     3.2620    -0.9410 o          1 C0X      -0.725000
     28 H1          -1.2700     3.1910    -0.7010 h1         1 C0X       0.029700
     29 H2          -1.1410     2.7380    -2.4100 h1         1 C0X       0.029700
     30 H3          -3.4740     2.1750    -2.5380 h1         1 C0X       0.014700
     31 H4           0.7750     1.4760    -2.0540 ha         1 C0X       0.162000
     32 H5           7.6730    -3.6170     2.0300 hc         1 C0X       0.037033
     33 H6           8.3770    -2.1510     2.7280 hc         1 C0X       0.037033
     34 H7           6.8920    -2.0520     1.7880 hc         1 C0X       0.037033
     35 H8          10.0080    -4.0690     0.9040 hc         1 C0X       0.037033
     36 H9          10.6830    -2.8480    -0.1820 hc         1 C0X       0.037033
     37 H10         10.6410    -2.5490     1.5600 hc         1 C0X       0.037033
     38 H11          0.1340     0.8510     2.0210 hc         1 C0X       0.037700
     39 H12          0.7670     2.5040     1.9730 hc         1 C0X       0.037700
     40 H13         -0.8300     2.1460     1.3190 hc         1 C0X       0.037700
     41 H14          3.2920     2.6780    -0.1420 hc         1 C0X       0.044700
     42 H15          3.1030     2.2510     1.5420 hc         1 C0X       0.044700
     43 H16          5.3220     0.6440    -2.5970 hc         1 C0X       0.036700
     44 H17          4.2740     1.9310    -2.0220 hc         1 C0X       0.036700
     45 H18          6.0000     2.2340    -2.2210 hc         1 C0X       0.036700
     46 H19          7.6790     0.9880    -0.8140 hc         1 C0X       0.039700
     47 H20          7.1950     0.4100     0.7650 hc         1 C0X       0.039700
     48 H21          6.1620    -1.6320    -0.3030 hc         1 C0X       0.048200
     49 H22          6.7520    -1.1010    -1.8590 hc         1 C0X       0.048200
     50 H23         -6.2730    -0.3430     2.4350 h1         1 C0X       0.040700
     51 H24         -6.0750     1.0630     1.3580 h1         1 C0X       0.040700
     52 H25         -7.6950     0.5590     1.8770 h1         1 C0X       0.040700
     53 H26          2.1890     0.0060     0.8920 hc         1 C0X       0.040700
     54 H27          2.4800     0.3740    -0.7930 hc         1 C0X       0.040700
     55 H28          4.9840     0.8280     1.5570 ha         1 C0X       0.160000
     56 H29          9.0030    -1.6250    -1.3610 ha         1 C0X       0.160000
     57 H30         -5.3140     0.6870    -2.0530 h1         1 C0X       0.032200
     58 H31         -3.8500    -0.2700    -2.3490 h1         1 C0X       0.032200
     59 H32         -6.1900    -3.8370     1.1520 h1         1 C0X       0.040700
     60 H33         -4.5940    -4.1310     0.4150 h1         1 C0X       0.040700
     61 H34         -4.7450    -3.9680     2.1770 h1         1 C0X       0.040700
     62 O28         -3.5990     3.0450     0.4830 o          1 C0X      -0.725000
@<TRIPOS>BOND
     1     1     3 1   
     2     1    19 1   
     3     1    28 1   
     4     1    29 1   
     5     2    19 1   
     6     2    20 1   
     7     2    26 1   
     8     2    30 1   
     9     3     7 2   
    10     3    31 1   
    11     4    18 1   
    12     4    32 1   
    13     4    33 1   
    14     4    34 1   
    15     5    18 1   
    16     5    35 1   
    17     5    36 1   
    18     5    37 1   
    19     6     7 1   
    20     6    38 1   
    21     6    39 1   
    22     6    40 1   
    23     7    15 1   
    24     8    15 1   
    25     8    16 1   
    26     8    41 1   
    27     8    42 1   
    28     9    10 1   
    29     9    11 1   
    30     9    16 2   
    31    10    43 1   
    32    10    44 1   
    33    10    45 1   
    34    11    12 1   
    35    11    46 1   
    36    11    47 1   
    37    12    17 1   
    38    12    48 1   
    39    12    49 1   
    40    13    14 1   
    41    13    50 1   
    42    13    51 1   
    43    13    52 1   
    44    14    22 1   
    45    15    53 1   
    46    15    54 1   
    47    16    55 1   
    48    17    18 2   
    49    17    56 1   
    50    20    21 1   
    51    20    57 1   
    52    20    58 1   
    53    21    22 1   
    54    22    23 1   
    55    22    25 2   
    56    23    24 1   
    57    24    59 1   
    58    24    60 1   
    59    24    61 1   
    60    26    27 1   
    61    26    62 1   
@<TRIPOS>SUBSTRUCTURE
     1 C0X         1 TEMP              0 ****  ****    0 ROOT
