@<TRIPOS>MOLECULE
C0X
   62    61     1     0     0
SMALL
bcc


@<TRIPOS>ATOM
      1 C15         -1.1590     2.2400    -0.4720 c3         1 C0X       0.182600
      2 C17         -3.3940     1.5770    -0.8640 c3         1 C0X       0.002100
      3 C14          0.2050     1.6500    -0.3280 c2         1 C0X      -0.132200
      4 C13          7.6500    -2.8100     1.6340 c3         1 C0X      -0.054400
      5 C12          9.9350    -3.1100     0.6120 c3         1 C0X      -0.054400
      6 C1           0.9820     3.0480     1.6100 c3         1 C0X      -0.050900
      7 C2           1.1450     1.9910     0.5570 c2         1 C0X      -0.137400
      8 C4           3.6380     2.2700     0.1480 c3         1 C0X      -0.043200
      9 C6           5.7140     1.1340    -0.7920 c2         1 C0X      -0.130400
     10 C7           5.3560     1.2850    -2.2420 c3         1 C0X      -0.049900
     11 C8           6.9970     0.3980    -0.5130 c3         1 C0X      -0.033200
     12 C9           6.9210    -1.1010    -0.8470 c3         1 C0X      -0.039200
     13 C24         -7.4300    -0.3980     0.0870 c3         1 C0X       0.170200
     14 O23         -6.7430    -1.3490    -0.7340 os         1 C0X      -0.575700
     15 C3           2.4910     1.3190     0.5280 c3         1 C0X      -0.030200
     16 C5           4.9630     1.5790     0.2190 c2         1 C0X      -0.154200
     17 C10          8.2250    -1.7900    -0.5890 c2         1 C0X      -0.167200
     18 C11          8.5620    -2.5190     0.4780 c2         1 C0X      -0.119400
     19 O16         -2.0970     1.1870    -0.4960 os         1 C0X      -0.396600
     20 C18         -4.1320     0.3530    -1.3570 c3         1 C0X       0.210400
     21 O19         -4.3720    -0.5130    -0.2340 os         1 C0X      -0.545200
     22 P20         -5.2530    -1.8240    -0.4150 p5         1 C0X       1.597500
     23 O21         -5.2230    -2.2960     1.1070 os         1 C0X      -0.575700
     24 C22         -5.7370    -3.5850     1.4590 c3         1 C0X       0.170200
     25 O25         -4.8170    -2.8040    -1.4270 o          1 C0X      -0.814300
     26 C26         -4.2000     2.2760     0.2620 c          1 C0X       0.925600
     27 O27         -5.3430     2.6470    -0.0770 o          1 C0X      -0.830300
     28 H1          -1.3800     2.9520     0.3270 h1         1 C0X       0.029700
     29 H2          -1.2090     2.8030    -1.4190 h1         1 C0X       0.029700
     30 H3          -3.3560     2.2650    -1.7260 h1         1 C0X       0.014700
     31 H4           0.4450     0.8770    -1.0550 ha         1 C0X       0.112000
     32 H5           7.5910    -3.8850     1.8180 hc         1 C0X       0.037033
     33 H6           8.0440    -2.3630     2.5510 hc         1 C0X       0.037033
     34 H7           6.6360    -2.4390     1.4970 hc         1 C0X       0.037033
     35 H8           9.8860    -4.1980     0.7110 hc         1 C0X       0.037033
     36 H9          10.5700    -2.8770    -0.2430 hc         1 C0X       0.037033
     37 H10         10.4340    -2.7420     1.5130 hc         1 C0X       0.037033
     38 H11          1.4160     2.7150     2.5550 hc         1 C0X       0.037700
     39 H12          1.5060     3.9660     1.3330 hc         1 C0X       0.037700
     40 H13         -0.0570     3.3150     1.7960 hc         1 C0X       0.037700
     41 H14          3.4440     2.6770    -0.8460 hc         1 C0X       0.044700
     42 H15          3.6460     3.1210     0.8360 hc         1 C0X       0.044700
     43 H16          5.0950     0.3220    -2.6880 hc         1 C0X       0.036700
     44 H17          4.5150     1.9550    -2.4090 hc         1 C0X       0.036700
     45 H18          6.2070     1.6690    -2.8120 hc         1 C0X       0.036700
     46 H19          7.8150     0.8460    -1.0890 hc         1 C0X       0.039700
     47 H20          7.2640     0.5020     0.5410 hc         1 C0X       0.039700
     48 H21          6.1080    -1.5450    -0.2700 hc         1 C0X       0.048200
     49 H22          6.6540    -1.2280    -1.9000 hc         1 C0X       0.048200
     50 H23         -7.5990    -0.7910     1.0900 h1         1 C0X       0.040700
     51 H24         -6.8830     0.5430     0.1530 h1         1 C0X       0.040700
     52 H25         -8.3920    -0.2160    -0.3850 h1         1 C0X       0.040700
     53 H26          2.7030     0.8950     1.5160 hc         1 C0X       0.040700
     54 H27          2.4820     0.4840    -0.1760 hc         1 C0X       0.040700
     55 H28          5.3240     1.3900     1.2280 ha         1 C0X       0.110000
     56 H29          8.9870    -1.6340    -1.3490 ha         1 C0X       0.110000
     57 H30         -5.0740     0.6640    -1.8090 h1         1 C0X       0.032200
     58 H31         -3.5420    -0.1760    -2.1100 h1         1 C0X       0.032200
     59 H32         -6.7960    -3.6740     1.2150 h1         1 C0X       0.040700
     60 H33         -5.1850    -4.3800     0.9610 h1         1 C0X       0.040700
     61 H34         -5.6170    -3.6850     2.5340 h1         1 C0X       0.040700
     62 O28         -3.6590     2.4050     1.3700 o          1 C0X      -0.830300
@<TRIPOS>BOND
     1     1     3 1   
     2     1    19 1   
     3     1    28 1   
     4     1    29 1   
     5     2    19 1   
     6     2    20 1   
     7     2    26 1   
     8     2    30 1   
     9     3     7 2   
    10     3    31 1   
    11     4    18 1   
    12     4    32 1   
    13     4    33 1   
    14     4    34 1   
    15     5    18 1   
    16     5    35 1   
    17     5    36 1   
    18     5    37 1   
    19     6     7 1   
    20     6    38 1   
    21     6    39 1   
    22     6    40 1   
    23     7    15 1   
    24     8    15 1   
    25     8    16 1   
    26     8    41 1   
    27     8    42 1   
    28     9    10 1   
    29     9    11 1   
    30     9    16 2   
    31    10    43 1   
    32    10    44 1   
    33    10    45 1   
    34    11    12 1   
    35    11    46 1   
    36    11    47 1   
    37    12    17 1   
    38    12    48 1   
    39    12    49 1   
    40    13    14 1   
    41    13    50 1   
    42    13    51 1   
    43    13    52 1   
    44    14    22 1   
    45    15    53 1   
    46    15    54 1   
    47    16    55 1   
    48    17    18 2   
    49    17    56 1   
    50    20    21 1   
    51    20    57 1   
    52    20    58 1   
    53    21    22 1   
    54    22    23 1   
    55    22    25 2   
    56    23    24 1   
    57    24    59 1   
    58    24    60 1   
    59    24    61 1   
    60    26    27 1   
    61    26    62 1   
@<TRIPOS>SUBSTRUCTURE
     1 C0X         1 TEMP              0 ****  ****    0 ROOT
