@<TRIPOS>MOLECULE
C0Y
   40    41     1     0     0
SMALL
No Charge or Current Charge


@<TRIPOS>ATOM
      1 C1           3.2330     2.3020    -1.0690 c3         1 C0Y      -0.084767
      2 C2           3.5720     0.8570    -0.5930 c3         1 C0Y       0.016300
      3 C3           4.1400     0.1070    -1.8320 c3         1 C0Y      -0.084767
      4 C4           4.6740     0.9990     0.4960 c3         1 C0Y      -0.084767
      5 C5           2.3290     0.0940    -0.0150 ca         1 C0Y      -0.100300
      6 C6           1.0520     0.7180     0.0400 ca         1 C0Y      -0.033000
      7 C7          -0.1080     0.0540     0.5420 ca         1 C0Y      -0.186600
      8 C8           0.0390    -1.2540     1.0400 ca         1 C0Y      -0.042000
      9 C9           1.2840    -1.8910     0.9980 ca         1 C0Y      -0.224000
     10 C10          2.4130    -1.2420     0.4770 ca         1 C0Y       0.163100
     11 O11          3.5800    -1.9470     0.4780 oh         1 C0Y      -0.530100
     12 C12         -1.4730     0.7570     0.6130 c          1 C0Y       0.625700
     13 O13         -1.5290     1.9680     0.7890 o          1 C0Y      -0.599100
     14 N14         -2.6510    -0.0240     0.5640 n          1 C0Y      -0.412800
     15 C15         -3.9800     0.5580     0.9240 c6         1 C0Y       0.060500
     16 C16         -4.8610     0.8080    -0.3270 c6         1 C0Y       0.130600
     17 O17         -4.9810    -0.4100    -1.0930 os         1 C0Y      -0.445000
     18 C18         -3.7080    -0.9140    -1.5530 c6         1 C0Y       0.130600
     19 C19         -2.7730    -1.2060    -0.3480 c6         1 C0Y       0.060500
     20 H11C         2.4830     2.2910    -1.8690 hc         1 C0Y       0.037144
     21 H12C         2.8590     2.9160    -0.2410 hc         1 C0Y       0.037144
     22 H13C         4.1230     2.8040    -1.4670 hc         1 C0Y       0.037144
     23 H31C         4.9440     0.6840    -2.3050 hc         1 C0Y       0.037144
     24 H32C         4.5600    -0.8700    -1.5740 hc         1 C0Y       0.037144
     25 H33C         3.3540    -0.0500    -2.5810 hc         1 C0Y       0.037144
     26 H41C         4.2670     1.4740     1.3960 hc         1 C0Y       0.037144
     27 H42C         5.1010     0.0350     0.7870 hc         1 C0Y       0.037144
     28 H43C         5.5040     1.6180     0.1350 hc         1 C0Y       0.037144
     29 H6           0.9080     1.7340    -0.3120 ha         1 C0Y       0.133000
     30 H8          -0.8060    -1.7800     1.4790 ha         1 C0Y       0.119000
     31 H9           1.3660    -2.9040     1.3860 ha         1 C0Y       0.114000
     32 H11          3.4040    -2.8320     0.8610 ho         1 C0Y       0.464000
     33 H151        -4.5020    -0.1410     1.5920 h1         1 C0Y       0.064450
     34 H152        -3.8590     1.4980     1.4800 h1         1 C0Y       0.064450
     35 H191        -1.7940    -1.5010    -0.7460 h1         1 C0Y       0.064450
     36 H192        -3.1690    -2.0600     0.2210 h1         1 C0Y       0.064450
     37 H161        -5.8630     1.1420    -0.0210 h1         1 C0Y       0.054200
     38 H162        -4.4140     1.5930    -0.9540 h1         1 C0Y       0.054200
     39 H181        -3.8720    -1.8340    -2.1320 h1         1 C0Y       0.054200
     40 H182        -3.2430    -0.1710    -2.2170 h1         1 C0Y       0.054200
@<TRIPOS>BOND
     1     1     2 1   
     2     1    20 1   
     3     1    21 1   
     4     1    22 1   
     5     2     3 1   
     6     2     4 1   
     7     2     5 1   
     8     3    23 1   
     9     3    24 1   
    10     3    25 1   
    11     4    26 1   
    12     4    27 1   
    13     4    28 1   
    14     5     6 ar  
    15     5    10 ar  
    16     6     7 ar  
    17     6    29 1   
    18     7     8 ar  
    19     7    12 1   
    20     8     9 ar  
    21     8    30 1   
    22     9    10 ar  
    23     9    31 1   
    24    10    11 1   
    25    11    32 1   
    26    12    13 2   
    27    12    14 1   
    28    14    15 1   
    29    14    19 1   
    30    15    16 1   
    31    15    33 1   
    32    15    34 1   
    33    16    17 1   
    34    16    37 1   
    35    16    38 1   
    36    17    18 1   
    37    18    19 1   
    38    18    39 1   
    39    18    40 1   
    40    19    35 1   
    41    19    36 1   
@<TRIPOS>SUBSTRUCTURE
     1 C0Y         1 TEMP              0 ****  ****    0 ROOT
