@<TRIPOS>MOLECULE
C0Y
   40    41     1     0     0
SMALL
abcg2


@<TRIPOS>ATOM
      1 C1           2.9770     2.2350    -1.0300 c3         1 C0Y      -0.084767
      2 C2           3.4050     0.8260    -0.6050 c3         1 C0Y       0.016300
      3 C3           3.9200     0.1130    -1.8650 c3         1 C0Y      -0.084767
      4 C4           4.5430     0.9980     0.4130 c3         1 C0Y      -0.084767
      5 C5           2.2410     0.0490     0.0130 ca         1 C0Y      -0.100300
      6 C6           0.9740     0.6110     0.1190 ca         1 C0Y      -0.033000
      7 C7          -0.1220    -0.0590     0.6580 ca         1 C0Y      -0.186600
      8 C8           0.0590    -1.3410     1.1580 ca         1 C0Y      -0.042000
      9 C9           1.3080    -1.9300     1.0900 ca         1 C0Y      -0.224000
     10 C10          2.3860    -1.2600     0.5140 ca         1 C0Y       0.163100
     11 O11          3.5870    -1.8620     0.4360 oh         1 C0Y      -0.530100
     12 C12         -1.4090     0.6810     0.8000 c          1 C0Y       0.625700
     13 O13         -1.4000     1.8370     1.2100 o          1 C0Y      -0.599100
     14 N14         -2.5570     0.0280     0.5060 n          1 C0Y      -0.412800
     15 C15         -3.8480     0.6290     0.7990 c6         1 C0Y       0.060500
     16 C16         -4.6180     0.8800    -0.4840 c6         1 C0Y       0.130600
     17 O17         -4.7560    -0.3070    -1.2350 os         1 C0Y      -0.445000
     18 C18         -3.4980    -0.8510    -1.5600 c6         1 C0Y       0.130600
     19 C19         -2.6730    -1.1630    -0.3200 c6         1 C0Y       0.060500
     20 H11C         2.1910     2.2230    -1.7870 hc         1 C0Y       0.037144
     21 H12C         2.6290     2.8340    -0.1860 hc         1 C0Y       0.037144
     22 H13C         3.8350     2.7540    -1.4600 hc         1 C0Y       0.037144
     23 H31C         4.7390     0.6880    -2.3040 hc         1 C0Y       0.037144
     24 H32C         4.2940    -0.8880    -1.6630 hc         1 C0Y       0.037144
     25 H33C         3.1320     0.0350    -2.6170 hc         1 C0Y       0.037144
     26 H41C         4.1910     1.5230     1.3020 hc         1 C0Y       0.037144
     27 H42C         4.9780     0.0520     0.7290 hc         1 C0Y       0.037144
     28 H43C         5.3430     1.5980    -0.0280 hc         1 C0Y       0.037144
     29 H6           0.8130     1.6170    -0.2400 ha         1 C0Y       0.133000
     30 H8          -0.7560    -1.8830     1.6190 ha         1 C0Y       0.119000
     31 H9           1.4520    -2.9260     1.4920 ha         1 C0Y       0.114000
     32 H11          3.5430    -2.7460     0.8180 ho         1 C0Y       0.464000
     33 H151        -4.4110    -0.0580     1.4390 h1         1 C0Y       0.064450
     34 H152        -3.7110     1.5600     1.3430 h1         1 C0Y       0.064450
     35 H191        -1.6950    -1.5160    -0.6360 h1         1 C0Y       0.064450
     36 H192        -3.1470    -1.9640     0.2570 h1         1 C0Y       0.064450
     37 H161        -5.6220     1.2390    -0.2510 h1         1 C0Y       0.054200
     38 H162        -4.1090     1.6540    -1.0750 h1         1 C0Y       0.054200
     39 H181        -3.6710    -1.7700    -2.1220 h1         1 C0Y       0.054200
     40 H182        -2.9330    -0.1590    -2.2000 h1         1 C0Y       0.054200
@<TRIPOS>BOND
     1     1     2 1   
     2     1    20 1   
     3     1    21 1   
     4     1    22 1   
     5     2     3 1   
     6     2     4 1   
     7     2     5 1   
     8     3    23 1   
     9     3    24 1   
    10     3    25 1   
    11     4    26 1   
    12     4    27 1   
    13     4    28 1   
    14     5     6 ar  
    15     5    10 ar  
    16     6     7 ar  
    17     6    29 1   
    18     7     8 ar  
    19     7    12 1   
    20     8     9 ar  
    21     8    30 1   
    22     9    10 ar  
    23     9    31 1   
    24    10    11 1   
    25    11    32 1   
    26    12    13 2   
    27    12    14 1   
    28    14    15 1   
    29    14    19 1   
    30    15    16 1   
    31    15    33 1   
    32    15    34 1   
    33    16    17 1   
    34    16    37 1   
    35    16    38 1   
    36    17    18 1   
    37    18    19 1   
    38    18    39 1   
    39    18    40 1   
    40    19    35 1   
    41    19    36 1   
@<TRIPOS>SUBSTRUCTURE
     1 C0Y         1 TEMP              0 ****  ****    0 ROOT
