@<TRIPOS>MOLECULE
C0Z
   59    63     1     0     0
SMALL
bcc


@<TRIPOS>ATOM
      1 O3          -0.5590     0.7270     0.3090 o          1 C0Z      -0.600500
      2 C25         -0.1610     1.8530     0.1080 c          1 C0Z       0.677500
      3 N2           1.1250     2.2710    -0.0270 n          1 C0Z      -0.381000
      4 C8           2.2620     1.4470    -0.0940 ca         1 C0Z       0.067600
      5 C7           2.3060     0.1970     0.5330 ca         1 C0Z      -0.131000
      6 C9           3.3850     1.9100    -0.7860 ca         1 C0Z      -0.179000
      7 C10          4.5420     1.1450    -0.8560 ca         1 C0Z      -0.077000
      8 C11          4.5810    -0.0890    -0.2340 ca         1 C0Z      -0.104300
      9 C6           3.4650    -0.5540     0.4490 ca         1 C0Z      -0.066300
     10 C5           3.7260    -1.9240     1.0110 c5         1 C0Z      -0.031100
     11 C4           5.2560    -2.0510     0.9430 c5         1 C0Z      -0.111400
     12 C3           5.7000    -1.0970    -0.1960 c5         1 C0Z       0.231800
     13 N1           7.0180    -0.5010    -0.1120 n3         1 C0Z      -0.720600
     14 C2           7.2580     0.2900     1.0750 c3         1 C0Z       0.156600
     15 C1           8.0750    -1.4640    -0.3270 c3         1 C0Z       0.156600
     16 C14         -1.0560     3.0810    -0.0490 c5         1 C0Z       0.141500
     17 C13         -0.1160     4.2370     0.2520 c5         1 C0Z      -0.093400
     18 C12          1.2170     3.7120    -0.2600 c5         1 C0Z       0.093000
     19 N3          -2.2350     3.0470     0.7810 n7         1 C0Z      -0.819100
     20 S1          -3.7050     2.6170     0.1840 sy         1 C0Z       1.309200
     21 O1          -4.6280     2.7540     1.2980 o          1 C0Z      -0.605300
     22 O2          -3.9060     3.3830    -1.0350 o          1 C0Z      -0.605300
     23 C15         -3.6250     0.9080    -0.2690 ca         1 C0Z      -0.291500
     24 C24         -3.8560    -0.0410     0.6870 ca         1 C0Z       0.013000
     25 C23         -3.7290    -1.4060     0.3580 ca         1 C0Z      -0.061000
     26 C18         -3.3640    -1.7710    -0.9620 ca         1 C0Z       0.016000
     27 C17         -3.1460    -0.7570    -1.9220 ca         1 C0Z      -0.121000
     28 C16         -3.2740     0.5610    -1.5890 ca         1 C0Z      -0.046000
     29 C22         -3.9560    -2.4210     1.3160 ca         1 C0Z      -0.091000
     30 C21         -3.8240    -3.7400     0.9840 ca         1 C0Z      -0.129000
     31 C20         -3.4590    -4.0860    -0.3330 ca         1 C0Z       0.046400
     32 CL1         -3.2980    -5.7630    -0.7270 cl         1 C0Z      -0.105400
     33 C19         -3.2330    -3.1390    -1.2910 ca         1 C0Z      -0.122000
     34 H14         -1.3610     3.1310    -1.1000 h1         1 C0Z       0.099700
     35 H121         2.0680     4.1290     0.2790 h1         1 C0Z       0.058700
     36 H122         1.3480     3.9260    -1.3230 h1         1 C0Z       0.058700
     37 H7           1.4610    -0.1770     1.0900 ha         1 C0Z       0.159000
     38 H9           3.3660     2.8700    -1.2840 ha         1 C0Z       0.130000
     39 H10          5.4050     1.5250    -1.3900 ha         1 C0Z       0.147000
     40 H3           5.6820    -1.6590    -1.1390 h1         1 C0Z       0.067700
     41 H51C         3.3330    -2.0570     2.0200 hc         1 C0Z       0.056200
     42 H52C         3.2420    -2.6800     0.3850 hc         1 C0Z       0.056200
     43 H41C         5.6870    -1.7230     1.8920 hc         1 C0Z       0.048700
     44 H42C         5.5820    -3.0780     0.7780 hc         1 C0Z       0.048700
     45 H21C         7.3140    -0.2950     2.0050 h1         1 C0Z       0.031033
     46 H22C         8.2070     0.8170     0.9710 h1         1 C0Z       0.031033
     47 H23C         6.4790     1.0420     1.2020 h1         1 C0Z       0.031033
     48 H11C         7.9110    -2.0000    -1.2640 h1         1 C0Z       0.031033
     49 H12C         9.0350    -0.9500    -0.4020 h1         1 C0Z       0.031033
     50 H13C         8.1670    -2.2140     0.4740 h1         1 C0Z       0.031033
     51 H131        -0.4140     5.1660    -0.2290 hc         1 C0Z       0.073200
     52 H132        -0.0670     4.4050     1.3300 hc         1 C0Z       0.073200
     53 HA          -2.0930     2.7490     1.7400 hn         1 C0Z       0.440800
     54 H24         -4.1320     0.2320     1.6970 ha         1 C0Z       0.150000
     55 H16         -3.1150     1.3250    -2.3370 ha         1 C0Z       0.151000
     56 H22         -4.2350    -2.1450     2.3250 ha         1 C0Z       0.140000
     57 H17         -2.8780    -1.0350    -2.9340 ha         1 C0Z       0.138000
     58 H19         -2.9540    -3.4220    -2.2980 ha         1 C0Z       0.151000
     59 H21         -3.9940    -4.5130     1.7200 ha         1 C0Z       0.150000
@<TRIPOS>BOND
     1     1     2 2   
     2     2     3 1   
     3     2    16 1   
     4     3     4 1   
     5     3    18 1   
     6     4     5 ar  
     7     4     6 ar  
     8     5     9 ar  
     9     5    37 1   
    10     6     7 ar  
    11     6    38 1   
    12     7     8 ar  
    13     7    39 1   
    14     8     9 ar  
    15     8    12 1   
    16     9    10 1   
    17    10    11 1   
    18    10    41 1   
    19    10    42 1   
    20    11    12 1   
    21    11    43 1   
    22    11    44 1   
    23    12    13 1   
    24    12    40 1   
    25    13    14 1   
    26    13    15 1   
    27    14    45 1   
    28    14    46 1   
    29    14    47 1   
    30    15    48 1   
    31    15    49 1   
    32    15    50 1   
    33    16    17 1   
    34    16    19 1   
    35    16    34 1   
    36    17    18 1   
    37    17    51 1   
    38    17    52 1   
    39    18    35 1   
    40    18    36 1   
    41    19    20 1   
    42    19    53 1   
    43    20    21 2   
    44    20    22 2   
    45    20    23 1   
    46    23    24 ar  
    47    23    28 ar  
    48    24    25 ar  
    49    24    54 1   
    50    25    26 ar  
    51    25    29 ar  
    52    26    27 ar  
    53    26    33 ar  
    54    27    28 ar  
    55    27    57 1   
    56    28    55 1   
    57    29    30 ar  
    58    29    56 1   
    59    30    31 ar  
    60    30    59 1   
    61    31    32 1   
    62    31    33 ar  
    63    33    58 1   
@<TRIPOS>SUBSTRUCTURE
     1 C0Z         1 TEMP              0 ****  ****    0 ROOT
