@<TRIPOS>MOLECULE
C0Z
   59    63     1     0     0
SMALL
No Charge or Current Charge


@<TRIPOS>ATOM
      1 O3          -0.3730     0.5850     1.3130 o          1 C0Z      -0.525000
      2 C25         -0.1630     1.4740     0.4960 c          1 C0Z       0.535000
      3 N2           1.0770     1.7770    -0.1030 n          1 C0Z      -0.221400
      4 C8           2.3240     1.0910     0.1410 ca         1 C0Z      -0.025000
      5 C7           2.5890     0.4400     1.3700 ca         1 C0Z      -0.113000
      6 C9           3.1820     0.8260    -0.9560 ca         1 C0Z      -0.161000
      7 C10          4.3350     0.0320    -0.8010 ca         1 C0Z      -0.059000
      8 C11          4.6100    -0.5290     0.4540 ca         1 C0Z      -0.104300
      9 C6           3.7460    -0.3410     1.5110 ca         1 C0Z      -0.066300
     10 C5           4.1820    -1.0880     2.7460 c5         1 C0Z      -0.031100
     11 C4           5.6950    -1.3730     2.4050 c5         1 C0Z      -0.111400
     12 C3           5.7660    -1.4290     0.8220 c5         1 C0Z       0.231800
     13 N1           7.1080    -0.9450     0.3510 n3         1 C0Z      -0.720600
     14 C2           7.4440     0.4860     0.5800 c3         1 C0Z       0.156600
     15 C1           8.2360    -1.8480     0.6690 c3         1 C0Z       0.156600
     16 C14         -1.1690     2.5090    -0.1030 c5         1 C0Z       0.141500
     17 C13         -0.2510     3.6680    -0.5690 c5         1 C0Z      -0.093400
     18 C12          0.9980     2.8920    -1.0700 c5         1 C0Z       0.093000
     19 N3          -2.1870     3.1240     0.8210 n7         1 C0Z      -0.874300
     20 S1          -3.4910     2.2660     1.4210 sy         1 C0Z       1.167600
     21 O1          -3.0180     1.6400     2.6560 o          1 C0Z      -0.534500
     22 O2          -4.6130     3.2070     1.3900 o          1 C0Z      -0.534500
     23 C15         -3.7350     1.0170     0.1480 ca         1 C0Z      -0.291500
     24 C24         -3.3040    -0.3080     0.3600 ca         1 C0Z       0.031000
     25 C23         -3.4790    -1.2770    -0.6470 ca         1 C0Z      -0.061000
     26 C18         -4.0940    -0.9220    -1.8680 ca         1 C0Z       0.016000
     27 C17         -4.5310     0.4000    -2.0730 ca         1 C0Z      -0.103000
     28 C16         -4.3550     1.3670    -1.0700 ca         1 C0Z      -0.028000
     29 C22         -3.0400    -2.6000    -0.4420 ca         1 C0Z      -0.073000
     30 C21         -3.2150    -3.5630    -1.4510 ca         1 C0Z      -0.111000
     31 C20         -3.8270    -3.2070    -2.6630 ca         1 C0Z       0.138000
     32 Cl1         -4.0430    -4.4160    -3.9230 cl         1 C0Z      -0.197000
     33 C19         -4.2660    -1.8910    -2.8740 ca         1 C0Z      -0.104000
     34 H14         -1.6330     2.0380    -0.9810 h1         1 C0Z       0.099700
     35 H121         1.9020     3.5160    -1.0600 h1         1 C0Z       0.058700
     36 H122         0.8500     2.5080    -2.0880 h1         1 C0Z       0.058700
     37 H7           1.9280     0.5610     2.2240 ha         1 C0Z       0.141000
     38 H9           2.9610     1.2330    -1.9390 ha         1 C0Z       0.112000
     39 H10          4.9980    -0.1530    -1.6430 ha         1 C0Z       0.129000
     40 H3           5.5580    -2.4470     0.4610 h1         1 C0Z       0.067700
     41 H51C         4.0680    -0.5030     3.6660 hc         1 C0Z       0.056200
     42 H52C         3.6140    -2.0170     2.8700 hc         1 C0Z       0.056200
     43 H41C         6.3090    -0.5680     2.8210 hc         1 C0Z       0.048700
     44 H42C         6.0520    -2.3010     2.8650 hc         1 C0Z       0.048700
     45 H21C         7.6510     0.6870     1.6380 h1         1 C0Z       0.031033
     46 H22C         8.3410     0.7620     0.0080 h1         1 C0Z       0.031033
     47 H23C         6.6320     1.1480     0.2560 h1         1 C0Z       0.031033
     48 H11C         8.0040    -2.8780     0.3680 h1         1 C0Z       0.031033
     49 H12C         9.1450    -1.5380     0.1370 h1         1 C0Z       0.031033
     50 H13C         8.4520    -1.8440     1.7460 h1         1 C0Z       0.031033
     51 H131        -0.7070     4.2870    -1.3490 hc         1 C0Z       0.073200
     52 H132         0.0220     4.3300     0.2620 hc         1 C0Z       0.073200
     53 HA          -1.7560     3.4380     1.6910 hn         1 C0Z       0.496000
     54 H24         -2.8300    -0.5900     1.2980 ha         1 C0Z       0.132000
     55 H16         -4.6910     2.3880    -1.2450 ha         1 C0Z       0.133000
     56 H22         -2.5640    -2.8830     0.4950 ha         1 C0Z       0.122000
     57 H17         -5.0060     0.6800    -3.0100 ha         1 C0Z       0.120000
     58 H19         -4.7390    -1.6270    -3.8160 ha         1 C0Z       0.133000
     59 H21         -2.8760    -4.5840    -1.2930 ha         1 C0Z       0.132000
@<TRIPOS>BOND
     1     1     2 2   
     2     2     3 1   
     3     2    16 1   
     4     3     4 1   
     5     3    18 1   
     6     4     5 ar  
     7     4     6 ar  
     8     5     9 ar  
     9     5    37 1   
    10     6     7 ar  
    11     6    38 1   
    12     7     8 ar  
    13     7    39 1   
    14     8     9 ar  
    15     8    12 1   
    16     9    10 1   
    17    10    11 1   
    18    10    41 1   
    19    10    42 1   
    20    11    12 1   
    21    11    43 1   
    22    11    44 1   
    23    12    13 1   
    24    12    40 1   
    25    13    14 1   
    26    13    15 1   
    27    14    45 1   
    28    14    46 1   
    29    14    47 1   
    30    15    48 1   
    31    15    49 1   
    32    15    50 1   
    33    16    17 1   
    34    16    19 1   
    35    16    34 1   
    36    17    18 1   
    37    17    51 1   
    38    17    52 1   
    39    18    35 1   
    40    18    36 1   
    41    19    20 1   
    42    19    53 1   
    43    20    21 2   
    44    20    22 2   
    45    20    23 1   
    46    23    24 ar  
    47    23    28 ar  
    48    24    25 ar  
    49    24    54 1   
    50    25    26 ar  
    51    25    29 ar  
    52    26    27 ar  
    53    26    33 ar  
    54    27    28 ar  
    55    27    57 1   
    56    28    55 1   
    57    29    30 ar  
    58    29    56 1   
    59    30    31 ar  
    60    30    59 1   
    61    31    32 1   
    62    31    33 ar  
    63    33    58 1   
@<TRIPOS>SUBSTRUCTURE
     1 C0Z         1 TEMP              0 ****  ****    0 ROOT
