@<TRIPOS>MOLECULE
C10
   75    74     1     0     0
SMALL
No Charge or Current Charge


@<TRIPOS>ATOM
      1 C1          -2.7340    -1.7190    14.6200 c3         1 C10      -0.088100
      2 C2          -2.4580    -0.6220    13.5750 c3         1 C10      -0.075400
      3 C3          -1.7350    -1.1520    12.3170 c3         1 C10      -0.075400
      4 C4          -1.4570    -0.0510    11.2700 c3         1 C10      -0.074400
      5 C5          -0.7350    -0.5820    10.0120 c3         1 C10      -0.074400
      6 C6          -0.4570     0.5190     8.9650 c3         1 C10      -0.074400
      7 C7           0.2660    -0.0120     7.7080 c3         1 C10      -0.073400
      8 C8           0.5440     1.0900     6.6610 c3         1 C10      -0.075400
      9 C9           1.2680     0.5600     5.4030 c3         1 C10      -0.078400
     10 C10          1.5440     1.6610     4.3610 c3         1 C10       0.162600
     11 O11          2.2140     1.0510     3.2480 os         1 C10      -0.448000
     12 C12          2.5430     1.9610     2.1790 c3         1 C10       0.163600
     13 C13          3.2470     1.1780     1.0450 c3         1 C10       0.162600
     14 O14          2.2780     0.3490     0.3720 os         1 C10      -0.434000
     15 C15          2.8160    -0.4430    -0.7050 c3         1 C10       0.161600
     16 C16          1.6740    -1.2690    -1.3440 c3         1 C10       0.161600
     17 O17          0.8160    -0.3860    -2.0930 os         1 C10      -0.436000
     18 C18         -0.3000    -1.0370    -2.7320 c3         1 C10       0.162600
     19 C19         -1.1260     0.0180    -3.5050 c3         1 C10       0.161600
     20 O20         -0.3860     0.4360    -4.6690 os         1 C10      -0.435000
     21 C21         -1.0480     1.4330    -5.4720 c3         1 C10       0.161600
     22 C22         -0.1540     1.7800    -6.6870 c3         1 C10       0.162600
     23 O23         -0.1650     0.6740    -7.6110 os         1 C10      -0.436000
     24 C24          0.6460     0.8700    -8.7860 c3         1 C10       0.162600
     25 C25          0.5360    -0.3800    -9.6910 c3         1 C10       0.161600
     26 O26         -0.7710    -0.4100   -10.3000 os         1 C10      -0.434000
     27 C27         -1.0020    -1.5430   -11.1620 c3         1 C10       0.160600
     28 C28         -2.4330    -1.4510   -11.7580 c3         1 C10       0.163600
     29 O29         -2.5570    -0.3500   -12.6800 oh         1 C10      -0.709000
     30 H1C1        -3.2470    -1.2960    15.4920 hc         1 C10       0.031367
     31 H1C2        -3.3700    -2.5070    14.1970 hc         1 C10       0.031367
     32 H1C3        -1.7970    -2.1760    14.9610 hc         1 C10       0.031367
     33 H2C1        -3.4090    -0.1620    13.2800 hc         1 C10       0.036700
     34 H2C2        -1.8510     0.1660    14.0380 hc         1 C10       0.036700
     35 H3C1        -0.7850    -1.6130    12.6150 hc         1 C10       0.036700
     36 H3C2        -2.3440    -1.9410    11.8580 hc         1 C10       0.036700
     37 H4C1        -2.4070     0.4100    10.9710 hc         1 C10       0.036700
     38 H4C2        -0.8490     0.7380    11.7290 hc         1 C10       0.036700
     39 H5C1         0.2150    -1.0430    10.3110 hc         1 C10       0.037700
     40 H5C2        -1.3430    -1.3710     9.5530 hc         1 C10       0.037700
     41 H6C1        -1.4070     0.9800     8.6670 hc         1 C10       0.036700
     42 H6C2         0.1520     1.3080     9.4250 hc         1 C10       0.036700
     43 H7C1         1.2160    -0.4730     8.0060 hc         1 C10       0.039200
     44 H7C2        -0.3430    -0.8000     7.2480 hc         1 C10       0.039200
     45 H8C1        -0.4050     1.5510     6.3620 hc         1 C10       0.036700
     46 H8C2         1.1530     1.8780     7.1210 hc         1 C10       0.036700
     47 H9C1         2.2190     0.1010     5.6990 hc         1 C10       0.052700
     48 H9C2         0.6590    -0.2260     4.9390 hc         1 C10       0.052700
     49 H101         0.5950     2.1120     4.0430 h1         1 C10       0.017200
     50 H102         2.1700     2.4430     4.8100 h1         1 C10       0.017200
     51 H121         1.6410     2.4480     1.7840 h1         1 C10       0.028200
     52 H122         3.2210     2.7440     2.5420 h1         1 C10       0.028200
     53 H131         3.6870     1.8950     0.3400 h1         1 C10       0.027200
     54 H132         4.0590     0.5720     1.4670 h1         1 C10       0.027200
     55 H151         3.2810     0.1930    -1.4700 h1         1 C10       0.027700
     56 H152         3.5810    -1.1330    -0.3230 h1         1 C10       0.027700
     57 H161         2.1130    -2.0250    -2.0090 h1         1 C10       0.027700
     58 H162         1.1140    -1.7910    -0.5570 h1         1 C10       0.027700
     59 H181         0.0420    -1.8160    -3.4260 h1         1 C10       0.027700
     60 H182        -0.9450    -1.5100    -1.9790 h1         1 C10       0.027700
     61 H191        -2.0820    -0.4310    -3.8050 h1         1 C10       0.028200
     62 H192        -1.3410     0.8710    -2.8470 h1         1 C10       0.028200
     63 H211        -2.0230     1.0720    -5.8250 h1         1 C10       0.028200
     64 H212        -1.2150     2.3450    -4.8830 h1         1 C10       0.028200
     65 H221        -0.5500     2.6820    -7.1710 h1         1 C10       0.027700
     66 H222         0.8650     1.9970    -6.3420 h1         1 C10       0.027700
     67 H241         0.3220     1.7580    -9.3450 h1         1 C10       0.027700
     68 H242         1.6970     1.0100    -8.5020 h1         1 C10       0.027700
     69 H251         1.3130    -0.3270   -10.4650 h1         1 C10       0.027200
     70 H252         0.7130    -1.2840    -9.0920 h1         1 C10       0.027200
     71 H271        -0.2660    -1.5720   -11.9770 h1         1 C10       0.025700
     72 H272        -0.9150    -2.4770   -10.5920 h1         1 C10       0.025700
     73 H281        -2.6550    -2.3950   -12.2720 h1         1 C10       0.024700
     74 H282        -3.1550    -1.3470   -10.9360 h1         1 C10       0.024700
     75 H29         -3.5000    -0.3210   -12.9650 ho         1 C10       0.499000
@<TRIPOS>BOND
     1     1     2 1   
     2     1    30 1   
     3     1    31 1   
     4     1    32 1   
     5     2     3 1   
     6     2    33 1   
     7     2    34 1   
     8     3     4 1   
     9     3    35 1   
    10     3    36 1   
    11     4     5 1   
    12     4    37 1   
    13     4    38 1   
    14     5     6 1   
    15     5    39 1   
    16     5    40 1   
    17     6     7 1   
    18     6    41 1   
    19     6    42 1   
    20     7     8 1   
    21     7    43 1   
    22     7    44 1   
    23     8     9 1   
    24     8    45 1   
    25     8    46 1   
    26     9    10 1   
    27     9    47 1   
    28     9    48 1   
    29    10    11 1   
    30    10    49 1   
    31    10    50 1   
    32    11    12 1   
    33    12    13 1   
    34    12    51 1   
    35    12    52 1   
    36    13    14 1   
    37    13    53 1   
    38    13    54 1   
    39    14    15 1   
    40    15    16 1   
    41    15    55 1   
    42    15    56 1   
    43    16    17 1   
    44    16    57 1   
    45    16    58 1   
    46    17    18 1   
    47    18    19 1   
    48    18    59 1   
    49    18    60 1   
    50    19    20 1   
    51    19    61 1   
    52    19    62 1   
    53    20    21 1   
    54    21    22 1   
    55    21    63 1   
    56    21    64 1   
    57    22    23 1   
    58    22    65 1   
    59    22    66 1   
    60    23    24 1   
    61    24    25 1   
    62    24    67 1   
    63    24    68 1   
    64    25    26 1   
    65    25    69 1   
    66    25    70 1   
    67    26    27 1   
    68    27    28 1   
    69    27    71 1   
    70    27    72 1   
    71    28    29 1   
    72    28    73 1   
    73    28    74 1   
    74    29    75 1   
@<TRIPOS>SUBSTRUCTURE
     1 C10         1 TEMP              0 ****  ****    0 ROOT
