@<TRIPOS>MOLECULE
C10
   75    74     1     0     0
SMALL
abcg2


@<TRIPOS>ATOM
      1 C1          -2.6700    -0.6180    14.4040 c3         1 C10      -0.088100
      2 C2          -2.4750     0.2640    13.1780 c3         1 C10      -0.075400
      3 C3          -1.6830    -0.4250    12.0730 c3         1 C10      -0.075400
      4 C4          -1.4820     0.4470    10.8410 c3         1 C10      -0.074400
      5 C5          -0.6970    -0.2430     9.7340 c3         1 C10      -0.074400
      6 C6          -0.4980     0.6330     8.5040 c3         1 C10      -0.074400
      7 C7           0.2840    -0.0520     7.3910 c3         1 C10      -0.073400
      8 C8           0.4760     0.8380     6.1700 c3         1 C10      -0.075400
      9 C9           1.2560     0.1620     5.0480 c3         1 C10      -0.078400
     10 C10          1.4280     1.0880     3.8610 c3         1 C10       0.162600
     11 O11          2.1520     0.4390     2.8430 os         1 C10      -0.448000
     12 C12          2.3770     1.2700     1.7330 c3         1 C10       0.163600
     13 C13          3.1610     0.5330     0.6780 c3         1 C10       0.162600
     14 O14          2.3810    -0.5030     0.1380 os         1 C10      -0.434000
     15 C15          3.0290    -1.1810    -0.9070 c3         1 C10       0.161600
     16 C16          2.0840    -2.1690    -1.5420 c3         1 C10       0.161600
     17 O17          1.0130    -1.4800    -2.1370 os         1 C10      -0.436000
     18 C18          0.1570    -2.3220    -2.8660 c3         1 C10       0.162600
     19 C19         -1.0240    -1.5310    -3.3680 c3         1 C10       0.161600
     20 O20         -0.5880    -0.5460    -4.2710 os         1 C10      -0.435000
     21 C21         -1.6350     0.2790    -4.7150 c3         1 C10       0.161600
     22 C22         -1.0910     1.3680    -5.6030 c3         1 C10       0.162600
     23 O23         -0.5850     0.8160    -6.7910 os         1 C10      -0.436000
     24 C24         -0.1060     1.7940    -7.6780 c3         1 C10       0.162600
     25 C25          0.3510     1.1480    -8.9600 c3         1 C10       0.161600
     26 O26         -0.7460     0.5740    -9.6230 os         1 C10      -0.434000
     27 C27         -0.3840    -0.0260   -10.8420 c3         1 C10       0.160600
     28 C28         -1.5920    -0.6490   -11.4920 c3         1 C10       0.163600
     29 O29         -2.5060     0.3590   -11.8560 oh         1 C10      -0.709000
     30 H1C1        -3.2430    -0.1090    15.1800 hc         1 C10       0.031367
     31 H1C2        -3.2040    -1.5340    14.1460 hc         1 C10       0.031367
     32 H1C3        -1.7110    -0.9080    14.8370 hc         1 C10       0.031367
     33 H2C1        -3.4510     0.5690    12.7860 hc         1 C10       0.036700
     34 H2C2        -1.9640     1.1880    13.4650 hc         1 C10       0.036700
     35 H3C1        -0.7070    -0.7320    12.4650 hc         1 C10       0.036700
     36 H3C2        -2.1960    -1.3500    11.7850 hc         1 C10       0.036700
     37 H4C1        -2.4590     0.7570    10.4530 hc         1 C10       0.036700
     38 H4C2        -0.9670     1.3700    11.1290 hc         1 C10       0.036700
     39 H5C1         0.2810    -0.5540    10.1210 hc         1 C10       0.037700
     40 H5C2        -1.2130    -1.1650     9.4440 hc         1 C10       0.037700
     41 H6C1        -1.4760     0.9450     8.1200 hc         1 C10       0.036700
     42 H6C2         0.0190     1.5540     8.7950 hc         1 C10       0.036700
     43 H7C1         1.2630    -0.3640     7.7720 hc         1 C10       0.039200
     44 H7C2        -0.2340    -0.9710     7.0960 hc         1 C10       0.039200
     45 H8C1        -0.5050     1.1510     5.7940 hc         1 C10       0.036700
     46 H8C2         0.9930     1.7560     6.4700 hc         1 C10       0.036700
     47 H9C1         2.2380    -0.1460     5.4180 hc         1 C10       0.052700
     48 H9C2         0.7340    -0.7480     4.7340 hc         1 C10       0.052700
     49 H101         0.4420     1.4040     3.4880 h1         1 C10       0.017200
     50 H102         1.9500     2.0030     4.1780 h1         1 C10       0.017200
     51 H121         1.4280     1.6280     1.3090 h1         1 C10       0.028200
     52 H122         2.9500     2.1630     2.0210 h1         1 C10       0.028200
     53 H131         3.4390     1.2580    -0.1000 h1         1 C10       0.027200
     54 H132         4.0980     0.1470     1.1050 h1         1 C10       0.027200
     55 H151         3.3910    -0.4750    -1.6680 h1         1 C10       0.027700
     56 H152         3.9070    -1.7310    -0.5410 h1         1 C10       0.027700
     57 H161         2.6510    -2.7460    -2.2870 h1         1 C10       0.027700
     58 H162         1.7210    -2.8870    -0.7920 h1         1 C10       0.027700
     59 H181         0.6870    -2.7890    -3.7080 h1         1 C10       0.027700
     60 H182        -0.2270    -3.1390    -2.2400 h1         1 C10       0.027700
     61 H191        -1.7250    -2.2280    -3.8480 h1         1 C10       0.028200
     62 H192        -1.5570    -1.0780    -2.5200 h1         1 C10       0.028200
     63 H211        -2.3960    -0.3030    -5.2550 h1         1 C10       0.028200
     64 H212        -2.1450     0.7580    -3.8680 h1         1 C10       0.028200
     65 H221        -1.9060     2.0740    -5.8140 h1         1 C10       0.027700
     66 H222        -0.3140     1.9330    -5.0660 h1         1 C10       0.027700
     67 H241        -0.8830     2.5420    -7.8930 h1         1 C10       0.027700
     68 H242         0.7460     2.3380    -7.2470 h1         1 C10       0.027700
     69 H251         0.8280     1.9210    -9.5780 h1         1 C10       0.027200
     70 H252         1.1220     0.3920    -8.7480 h1         1 C10       0.027200
     71 H271         0.0700     0.7110   -11.5220 h1         1 C10       0.025700
     72 H272         0.3660    -0.8140   -10.6840 h1         1 C10       0.025700
     73 H281        -1.2360    -1.2130   -12.3640 h1         1 C10       0.024700
     74 H282        -2.0400    -1.3780   -10.8030 h1         1 C10       0.024700
     75 H29         -3.2520    -0.0580   -12.2950 ho         1 C10       0.499000
@<TRIPOS>BOND
     1     1     2 1   
     2     1    30 1   
     3     1    31 1   
     4     1    32 1   
     5     2     3 1   
     6     2    33 1   
     7     2    34 1   
     8     3     4 1   
     9     3    35 1   
    10     3    36 1   
    11     4     5 1   
    12     4    37 1   
    13     4    38 1   
    14     5     6 1   
    15     5    39 1   
    16     5    40 1   
    17     6     7 1   
    18     6    41 1   
    19     6    42 1   
    20     7     8 1   
    21     7    43 1   
    22     7    44 1   
    23     8     9 1   
    24     8    45 1   
    25     8    46 1   
    26     9    10 1   
    27     9    47 1   
    28     9    48 1   
    29    10    11 1   
    30    10    49 1   
    31    10    50 1   
    32    11    12 1   
    33    12    13 1   
    34    12    51 1   
    35    12    52 1   
    36    13    14 1   
    37    13    53 1   
    38    13    54 1   
    39    14    15 1   
    40    15    16 1   
    41    15    55 1   
    42    15    56 1   
    43    16    17 1   
    44    16    57 1   
    45    16    58 1   
    46    17    18 1   
    47    18    19 1   
    48    18    59 1   
    49    18    60 1   
    50    19    20 1   
    51    19    61 1   
    52    19    62 1   
    53    20    21 1   
    54    21    22 1   
    55    21    63 1   
    56    21    64 1   
    57    22    23 1   
    58    22    65 1   
    59    22    66 1   
    60    23    24 1   
    61    24    25 1   
    62    24    67 1   
    63    24    68 1   
    64    25    26 1   
    65    25    69 1   
    66    25    70 1   
    67    26    27 1   
    68    27    28 1   
    69    27    71 1   
    70    27    72 1   
    71    28    29 1   
    72    28    73 1   
    73    28    74 1   
    74    29    75 1   
@<TRIPOS>SUBSTRUCTURE
     1 C10         1 TEMP              0 ****  ****    0 ROOT
