@<TRIPOS>MOLECULE
C11
   51    50     1     0     0
SMALL
bcc


@<TRIPOS>ATOM
      1 C1          -0.0850     0.0030    -2.0350 c3         1 C11      -0.270600
      2 C2           0.6630     0.2140    -0.7200 c3         1 C11      -0.052400
      3 C3          -0.2280    -0.0160     0.4940 c3         1 C11      -0.070400
      4 C4           0.5230     0.1420     1.8100 c3         1 C11      -0.076400
      5 C5          -0.3600    -0.0490     3.0360 c3         1 C11      -0.073400
      6 C6           0.4000     0.0950     4.3480 c3         1 C11      -0.074400
      7 C7          -0.4790    -0.0780     5.5800 c3         1 C11      -0.074400
      8 C8           0.2880     0.0610     6.8890 c3         1 C11      -0.074400
      9 C9          -0.5890    -0.1050     8.1230 c3         1 C11      -0.075400
     10 C10          0.1800     0.0280     9.4320 c3         1 C11      -0.075400
     11 C11         -0.7070    -0.1390    10.6590 c3         1 C11      -0.088100
     12 P            0.9530     0.3960    -3.4540 p5         1 C11       1.194300
     13 O1P          2.3040    -0.2380    -3.4730 o          1 C11      -0.768300
     14 O2P         -0.0120     0.0140    -4.6910 os         1 C11      -0.570200
     15 CY1          0.3870     0.3720    -6.0210 c3         1 C11       0.183400
     16 CY2         -0.6300    -0.1670    -7.0030 c3         1 C11      -0.083400
     17 CY3         -0.2780     0.2100    -8.4380 c3         1 C11      -0.076400
     18 CY4         -1.2720    -0.3520    -9.4440 c3         1 C11      -0.088100
     19 H11         -0.4220    -1.0330    -2.1270 hc         1 C11       0.083700
     20 H12         -0.9730     0.6400    -2.0850 hc         1 C11       0.083700
     21 H21          1.0700     1.2290    -0.6790 hc         1 C11       0.048200
     22 H22          1.5200    -0.4630    -0.6810 hc         1 C11       0.048200
     23 H31         -0.6650    -1.0190     0.4420 hc         1 C11       0.039200
     24 H32         -1.0680     0.6860     0.4660 hc         1 C11       0.039200
     25 H41          0.9840     1.1360     1.8470 hc         1 C11       0.039700
     26 H42          1.3500    -0.5760     1.8420 hc         1 C11       0.039700
     27 H51         -0.8310    -1.0380     2.9960 hc         1 C11       0.037200
     28 H52         -1.1800     0.6780     3.0100 hc         1 C11       0.037200
     29 H61          0.8810     1.0800     4.3810 hc         1 C11       0.037700
     30 H62          1.2140    -0.6380     4.3770 hc         1 C11       0.037700
     31 H71         -0.9640    -1.0600     5.5460 hc         1 C11       0.037200
     32 H72         -1.2900     0.6590     5.5540 hc         1 C11       0.037200
     33 H81          0.7760     1.0420     6.9190 hc         1 C11       0.037200
     34 H82          1.0950    -0.6790     6.9150 hc         1 C11       0.037200
     35 H91         -1.0820    -1.0830     8.0920 hc         1 C11       0.036700
     36 H92         -1.3940     0.6390     8.1010 hc         1 C11       0.036700
     37 H101         0.6730     1.0040     9.4640 hc         1 C11       0.036700
     38 H102         0.9820    -0.7170     9.4570 hc         1 C11       0.036700
     39 H111        -0.1350    -0.0540    11.5840 hc         1 C11       0.031367
     40 H112        -1.4920     0.6180    10.6840 hc         1 C11       0.031367
     41 H113        -1.1940    -1.1160    10.6620 hc         1 C11       0.031367
     42 HP           1.0130     1.8070    -3.4970 hp         1 C11      -0.112400
     43 HY11         1.3770    -0.0380    -6.2400 h1         1 C11       0.036700
     44 HY12         0.4540     1.4630    -6.1020 h1         1 C11       0.036700
     45 HY21        -1.6210     0.2230    -6.7530 hc         1 C11       0.055700
     46 HY22        -0.6820    -1.2560    -6.9100 hc         1 C11       0.055700
     47 HY31         0.7260    -0.1540    -8.6750 hc         1 C11       0.038700
     48 HY32        -0.2380     1.2990    -8.5290 hc         1 C11       0.038700
     49 HY41        -1.0130    -0.0610   -10.4630 hc         1 C11       0.034367
     50 HY42        -1.2950    -1.4420    -9.4070 hc         1 C11       0.034367
     51 HY43        -2.2830     0.0060    -9.2450 hc         1 C11       0.034367
@<TRIPOS>BOND
     1     1     2 1   
     2     1    12 1   
     3     1    19 1   
     4     1    20 1   
     5     2     3 1   
     6     2    21 1   
     7     2    22 1   
     8     3     4 1   
     9     3    23 1   
    10     3    24 1   
    11     4     5 1   
    12     4    25 1   
    13     4    26 1   
    14     5     6 1   
    15     5    27 1   
    16     5    28 1   
    17     6     7 1   
    18     6    29 1   
    19     6    30 1   
    20     7     8 1   
    21     7    31 1   
    22     7    32 1   
    23     8     9 1   
    24     8    33 1   
    25     8    34 1   
    26     9    10 1   
    27     9    35 1   
    28     9    36 1   
    29    10    11 1   
    30    10    37 1   
    31    10    38 1   
    32    11    39 1   
    33    11    40 1   
    34    11    41 1   
    35    12    13 2   
    36    12    14 1   
    37    12    42 1   
    38    14    15 1   
    39    15    16 1   
    40    15    43 1   
    41    15    44 1   
    42    16    17 1   
    43    16    45 1   
    44    16    46 1   
    45    17    18 1   
    46    17    47 1   
    47    17    48 1   
    48    18    49 1   
    49    18    50 1   
    50    18    51 1   
@<TRIPOS>SUBSTRUCTURE
     1 C11         1 TEMP              0 ****  ****    0 ROOT
