@<TRIPOS>MOLECULE
C11
   51    50     1     0     0
SMALL
No Charge or Current Charge


@<TRIPOS>ATOM
      1 C1           0.2260    -0.1450    -2.0980 c3         1 C11      -0.428400
      2 C2           0.8990     0.1950    -0.7470 c3         1 C11      -0.052400
      3 C3           0.0040    -0.1430     0.4640 c3         1 C11      -0.070400
      4 C4           0.6670     0.1920     1.8180 c3         1 C11      -0.076400
      5 C5          -0.2290    -0.1460     3.0300 c3         1 C11      -0.073400
      6 C6           0.4350     0.1890     4.3840 c3         1 C11      -0.074400
      7 C7          -0.4610    -0.1490     5.5960 c3         1 C11      -0.074400
      8 C8           0.2020     0.1860     6.9500 c3         1 C11      -0.074400
      9 C9          -0.6940    -0.1510     8.1620 c3         1 C11      -0.075400
     10 C10         -0.0310     0.1840     9.5160 c3         1 C11      -0.075400
     11 C11         -0.9240    -0.1530    10.7250 c3         1 C11      -0.088100
     12 P            1.2390     0.2380    -3.5860 p5         1 C11       1.122800
     13 O1P          2.5100    -0.5400    -3.6640 o          1 C11      -0.539000
     14 O2P          0.1720    -0.0730    -4.7640 os         1 C11      -0.593400
     15 CY1          0.5090     0.2680    -6.1120 c3         1 C11       0.206600
     16 CY2         -0.7070    -0.0780    -6.9930 c3         1 C11      -0.083400
     17 CY3         -0.4820     0.2410    -8.4870 c3         1 C11      -0.076400
     18 CY4         -1.6980    -0.1050    -9.3680 c3         1 C11      -0.088100
     19 H11         -0.0090    -1.2130    -2.1540 hc         1 C11       0.083700
     20 H12         -0.7100     0.4140    -2.2120 hc         1 C11       0.083700
     21 H21          1.1500     1.2630    -0.7230 hc         1 C11       0.048200
     22 H22          1.8440    -0.3580    -0.6620 hc         1 C11       0.048200
     23 H31         -0.2470    -1.2110     0.4400 hc         1 C11       0.039200
     24 H32         -0.9400     0.4100     0.3790 hc         1 C11       0.039200
     25 H41          0.9180     1.2600     1.8420 hc         1 C11       0.039700
     26 H42          1.6110    -0.3600     1.9030 hc         1 C11       0.039700
     27 H51         -0.4790    -1.2140     3.0060 hc         1 C11       0.037200
     28 H52         -1.1730     0.4070     2.9450 hc         1 C11       0.037200
     29 H61          0.6850     1.2570     4.4080 hc         1 C11       0.037700
     30 H62          1.3790    -0.3630     4.4690 hc         1 C11       0.037700
     31 H71         -0.7110    -1.2170     5.5720 hc         1 C11       0.037200
     32 H72         -1.4050     0.4040     5.5110 hc         1 C11       0.037200
     33 H81          0.4520     1.2540     6.9740 hc         1 C11       0.037200
     34 H82          1.1460    -0.3660     7.0350 hc         1 C11       0.037200
     35 H91         -0.9440    -1.2200     8.1380 hc         1 C11       0.036700
     36 H92         -1.6380     0.4010     8.0770 hc         1 C11       0.036700
     37 H101         0.2190     1.2520     9.5440 hc         1 C11       0.036700
     38 H102         0.9130    -0.3680     9.6050 hc         1 C11       0.036700
     39 H111        -0.4120     0.1020    11.6610 hc         1 C11       0.031367
     40 H112        -1.8630     0.4110    10.6830 hc         1 C11       0.031367
     41 H113        -1.1630    -1.2230    10.7450 hc         1 C11       0.031367
     42 HP           1.3540     1.6520    -3.5820 hp         1 C11      -0.112400
     43 HY11         1.3840    -0.3030    -6.4530 h1         1 C11       0.036700
     44 HY12         0.7340     1.3390    -6.2010 h1         1 C11       0.036700
     45 HY21        -1.5790     0.4790    -6.6310 hc         1 C11       0.055700
     46 HY22        -0.9360    -1.1450    -6.8810 hc         1 C11       0.055700
     47 HY31         0.3920    -0.3150    -8.8510 hc         1 C11       0.038700
     48 HY32        -0.2520     1.3080    -8.6010 hc         1 C11       0.038700
     49 HY41        -1.4910     0.1380   -10.4180 hc         1 C11       0.034367
     50 HY42        -1.9320    -1.1750    -9.3040 hc         1 C11       0.034367
     51 HY43        -2.5810     0.4630    -9.0520 hc         1 C11       0.034367
@<TRIPOS>BOND
     1     1     2 1   
     2     1    12 1   
     3     1    19 1   
     4     1    20 1   
     5     2     3 1   
     6     2    21 1   
     7     2    22 1   
     8     3     4 1   
     9     3    23 1   
    10     3    24 1   
    11     4     5 1   
    12     4    25 1   
    13     4    26 1   
    14     5     6 1   
    15     5    27 1   
    16     5    28 1   
    17     6     7 1   
    18     6    29 1   
    19     6    30 1   
    20     7     8 1   
    21     7    31 1   
    22     7    32 1   
    23     8     9 1   
    24     8    33 1   
    25     8    34 1   
    26     9    10 1   
    27     9    35 1   
    28     9    36 1   
    29    10    11 1   
    30    10    37 1   
    31    10    38 1   
    32    11    39 1   
    33    11    40 1   
    34    11    41 1   
    35    12    13 2   
    36    12    14 1   
    37    12    42 1   
    38    14    15 1   
    39    15    16 1   
    40    15    43 1   
    41    15    44 1   
    42    16    17 1   
    43    16    45 1   
    44    16    46 1   
    45    17    18 1   
    46    17    47 1   
    47    17    48 1   
    48    18    49 1   
    49    18    50 1   
    50    18    51 1   
@<TRIPOS>SUBSTRUCTURE
     1 C11         1 TEMP              0 ****  ****    0 ROOT
