@<TRIPOS>MOLECULE
C12
   40    41     1     0     0
SMALL
bcc


@<TRIPOS>ATOM
      1 C1           1.5000     0.3830     0.1720 cc         1 C12       0.282800
      2 N2           0.4530     1.0750     0.5060 nd         1 C12      -0.637000
      3 CA2         -0.2780     0.3120     1.3900 cd         1 C12       0.038600
      4 CG1          5.0820     1.1940    -0.9900 c3         1 C12      -0.121100
      5 OG1          3.7720     2.2870     0.7390 oh         1 C12      -0.602800
      6 C2           0.3350    -0.9210     1.6020 cc         1 C12       0.199400
      7 O2           0.0480    -1.9470     2.2750 o          1 C12      -0.515000
      8 N3           1.5030    -0.8320     0.8110 n          1 C12      -0.315900
      9 CA1          2.5810     0.8400    -0.7590 c3         1 C12       0.137200
     10 N1           2.1790     2.0930    -1.3850 n8         1 C12      -0.925800
     11 CB1          3.9150     1.1090    -0.0150 c3         1 C12       0.151100
     12 CA3          2.3840    -1.9360     0.5950 c3         1 C12      -0.065700
     13 C3           2.2050    -2.5550    -0.7680 c          1 C12       0.560900
     14 O3           3.0620    -3.1710    -1.3470 o          1 C12      -0.566100
     15 CB2         -1.6090     0.7440     1.9070 c3         1 C12       0.006600
     16 CG2         -2.7310     0.5530     0.9120 ca         1 C12      -0.069300
     17 CD1         -3.5200     1.6080     0.4750 ca         1 C12      -0.093000
     18 CE1         -4.5390     1.4240    -0.4560 ca         1 C12      -0.201500
     19 CD2         -2.9960    -0.7120     0.3830 ca         1 C12      -0.093000
     20 CE2         -4.0070    -0.9170    -0.5400 ca         1 C12      -0.201500
     21 CZ          -4.7870     0.1580    -0.9690 ca         1 C12       0.100100
     22 OH          -5.7580    -0.0900    -1.8770 oh         1 C12      -0.512100
     23 HG12         5.2000     0.2560    -1.5350 hc         1 C12       0.027700
     24 HG13         4.9350     1.9920    -1.7210 hc         1 C12       0.027700
     25 HG1          3.2220     2.8520     0.1670 ho         1 C12       0.429000
     26 HA1          2.7650     0.0570    -1.5100 h1         1 C12       0.016700
     27 HN11         2.4290     2.1070    -2.3630 hn         1 C12       0.358300
     28 HN12         1.1760     2.2070    -1.3170 hn         1 C12       0.358300
     29 HB1          4.1120     0.2960     0.6900 h1         1 C12       0.062700
     30 HA31         3.4350    -1.6910     0.7620 h1         1 C12       0.073700
     31 HA32         2.1190    -2.7050     1.3310 h1         1 C12       0.073700
     32 H3           1.1960    -2.4170    -1.2020 h4         1 C12      -0.005800
     33 HB21        -1.8390     0.1750     2.8140 hc         1 C12       0.033200
     34 HB22        -1.5870     1.7950     2.2140 hc         1 C12       0.033200
     35 HD1         -3.3430     2.6050     0.8630 ha         1 C12       0.139500
     36 HE1         -5.1350     2.2720    -0.7780 ha         1 C12       0.119500
     37 HD2         -2.3900    -1.5530     0.7010 ha         1 C12       0.139500
     38 HE2         -4.1960    -1.9080    -0.9340 ha         1 C12       0.119500
     39 HOH         -6.2240     0.7250    -2.0940 ho         1 C12       0.408000
     40 HG11         6.0160     1.3910    -0.4630 hc         1 C12       0.027700
@<TRIPOS>BOND
     1     1     2 2   
     2     1     8 1   
     3     1     9 1   
     4     2     3 1   
     5     3     6 2   
     6     3    15 1   
     7     4    11 1   
     8     4    23 1   
     9     4    24 1   
    10     4    40 1   
    11     5    11 1   
    12     5    25 1   
    13     6     7 1   
    14     6     8 1   
    15     8    12 1   
    16     9    10 1   
    17     9    11 1   
    18     9    26 1   
    19    10    27 1   
    20    10    28 1   
    21    11    29 1   
    22    12    13 1   
    23    12    30 1   
    24    12    31 1   
    25    13    14 2   
    26    13    32 1   
    27    15    16 1   
    28    15    33 1   
    29    15    34 1   
    30    16    17 ar  
    31    16    19 ar  
    32    17    18 ar  
    33    17    35 1   
    34    18    21 ar  
    35    18    36 1   
    36    19    20 ar  
    37    19    37 1   
    38    20    21 ar  
    39    20    38 1   
    40    21    22 1   
    41    22    39 1   
@<TRIPOS>SUBSTRUCTURE
     1 C12         1 TEMP              0 ****  ****    0 ROOT
