@<TRIPOS>MOLECULE
C12
   40    41     1     0     0
SMALL
No Charge or Current Charge


@<TRIPOS>ATOM
      1 C1           1.5870     0.5460     0.1360 cc         1 C12       0.282800
      2 N2           0.5420     1.2520     0.5650 nd         1 C12      -0.637000
      3 CA2         -0.2820     0.3060     1.1880 cd         1 C12      -0.026700
      4 CG1          5.3320     0.9160    -0.3790 c3         1 C12      -0.121100
      5 OG1          4.1010     2.7960     0.4700 oh         1 C12      -0.665000
      6 C2           0.3000    -0.9460     1.1090 cc         1 C12       0.214000
      7 O2          -0.1080    -2.0210     1.5200 o          1 C12      -0.515000
      8 N3           1.4840    -0.7890     0.4520 n          1 C12      -0.294500
      9 CA1          2.7610     1.1580    -0.6400 c3         1 C12       0.137200
     10 N1           2.3710     2.4320    -1.3470 n8         1 C12      -1.036200
     11 CB1          4.0130     1.3890     0.2700 c3         1 C12       0.174300
     12 CA3          2.4260    -1.8780     0.0920 c3         1 C12      -0.036400
     13 C3           1.9750    -2.7050    -1.1180 c          1 C12       0.560900
     14 O3           2.1390    -2.3480    -2.2820 o          1 C12      -0.566100
     15 CB2         -1.6040     0.6760     1.8190 c3         1 C12       0.006600
     16 CG2         -2.7990     0.4370     0.9040 ca         1 C12      -0.069300
     17 CD1         -3.2500     1.4560     0.0420 ca         1 C12      -0.075000
     18 CE1         -4.3530     1.2350    -0.8030 ca         1 C12      -0.183500
     19 CD2         -3.4600    -0.8080     0.9080 ca         1 C12      -0.075000
     20 CE2         -4.5620    -1.0270     0.0630 ca         1 C12      -0.183500
     21 CZ          -5.0080    -0.0060    -0.7900 ca         1 C12       0.100100
     22 OH          -6.0760    -0.2250    -1.6060 oh         1 C12      -0.551100
     23 HG12         5.3080    -0.1650    -0.5600 hc         1 C12       0.027700
     24 HG13         5.5020     1.4200    -1.3380 hc         1 C12       0.027700
     25 HG1          3.4830     3.0890    -0.2570 ho         1 C12       0.468000
     26 HA1          3.0470     0.4450    -1.4250 h1         1 C12       0.016700
     27 HN11         1.9660     2.1790    -2.2580 hn         1 C12       0.413500
     28 HN12         1.5370     2.7790    -0.8480 hn         1 C12       0.413500
     29 HB1          3.8810     0.8610     1.2260 h1         1 C12       0.062700
     30 HA31         3.4200    -1.4730    -0.1230 h1         1 C12       0.073700
     31 HA32         2.5210    -2.5640     0.9430 h1         1 C12       0.073700
     32 H3           1.4770    -3.6710    -0.8780 h4         1 C12      -0.005800
     33 HB21        -1.7320     0.1060     2.7480 hc         1 C12       0.033200
     34 HB22        -1.5840     1.7280     2.1310 hc         1 C12       0.033200
     35 HD1         -2.7420     2.4180     0.0260 ha         1 C12       0.121500
     36 HE1         -4.6900     2.0300    -1.4630 ha         1 C12       0.101500
     37 HD2         -3.1160    -1.6050     1.5650 ha         1 C12       0.121500
     38 HE2         -5.0680    -1.9890     0.0710 ha         1 C12       0.101500
     39 HOH         -6.2400     0.5920    -2.1250 ho         1 C12       0.447000
     40 HG11         6.1830     1.1280     0.2790 hc         1 C12       0.027700
@<TRIPOS>BOND
     1     1     2 2   
     2     1     8 1   
     3     1     9 1   
     4     2     3 1   
     5     3     6 2   
     6     3    15 1   
     7     4    11 1   
     8     4    23 1   
     9     4    24 1   
    10     4    40 1   
    11     5    11 1   
    12     5    25 1   
    13     6     7 1   
    14     6     8 1   
    15     8    12 1   
    16     9    10 1   
    17     9    11 1   
    18     9    26 1   
    19    10    27 1   
    20    10    28 1   
    21    11    29 1   
    22    12    13 1   
    23    12    30 1   
    24    12    31 1   
    25    13    14 2   
    26    13    32 1   
    27    15    16 1   
    28    15    33 1   
    29    15    34 1   
    30    16    17 ar  
    31    16    19 ar  
    32    17    18 ar  
    33    17    35 1   
    34    18    21 ar  
    35    18    36 1   
    36    19    20 ar  
    37    19    37 1   
    38    20    21 ar  
    39    20    38 1   
    40    21    22 1   
    41    22    39 1   
@<TRIPOS>SUBSTRUCTURE
     1 C12         1 TEMP              0 ****  ****    0 ROOT
