@<TRIPOS>MOLECULE
C13
   42    43     1     0     0
SMALL
abcg2


@<TRIPOS>ATOM
      1 OAA         -4.7680    -0.5100    -1.6160 o          1 C13      -0.622100
      2 CLC          7.8590     1.2780    -0.8810 cl         1 C13      -0.194500
      3 CAD         -9.5960    -0.4000     0.5570 ca         1 C13      -0.141000
      4 CAE         -8.8800    -0.8070    -0.5580 ca         1 C13      -0.081500
      5 CAF         -8.9050     0.1540     1.6280 ca         1 C13      -0.081500
      6 CAG         -7.4990    -0.6700    -0.6250 ca         1 C13      -0.156000
      7 CAH         -7.5300     0.3010     1.5750 ca         1 C13      -0.156000
      8 CAI          6.4810    -0.3410     0.7660 ca         1 C13      -0.097000
      9 CAJ          4.1110    -0.7750     0.5030 ca         1 C13      -0.094000
     10 CAK          5.2340     0.6900    -1.0350 ca         1 C13      -0.094000
     11 CAL         -0.8050     0.2110    -0.3000 c3         1 C13      -0.099400
     12 CAM          0.3790     0.2340    -1.2540 c3         1 C13       0.163800
     13 CAN         -2.1280     0.1950    -1.0490 c3         1 C13       0.115000
     14 CAO          2.7900     0.2380    -1.3850 c3         1 C13       0.206100
     15 NAP          1.6300     0.2120    -0.5210 n7         1 C13      -0.866400
     16 NAQ         -3.2320     0.2030    -0.1140 ns         1 C13      -0.522900
     17 NAR         -5.4250     0.0780     0.4990 ns         1 C13      -0.164000
     18 CAS         -4.4960    -0.1010    -0.4970 c          1 C13       0.662100
     19 CAT          5.3090    -0.9590     1.1720 ca         1 C13       0.123500
     20 CAU          6.4170     0.4820    -0.3460 ca         1 C13       0.123500
     21 CAV          4.0710     0.0540    -0.6130 ca         1 C13      -0.071300
     22 CAW         -6.8050    -0.1060     0.4490 ca         1 C13       0.000000
     23 HAD        -10.6720    -0.5140     0.5950 ha         1 C13       0.115000
     24 HAE         -9.3970    -1.2450    -1.4020 ha         1 C13       0.112000
     25 HAF         -9.4370     0.4800     2.5120 ha         1 C13       0.112000
     26 HAG         -6.9760    -1.0060    -1.5040 ha         1 C13       0.126500
     27 HAH         -7.0090     0.7390     2.4180 ha         1 C13       0.126500
     28 HAI          7.4090    -0.4900     1.3010 ha         1 C13       0.145000
     29 HAJ          3.2080    -1.2640     0.8450 ha         1 C13       0.140500
     30 HAK          5.2130     1.3480    -1.8950 ha         1 C13       0.140500
     31 HAL         -0.7360    -0.6680     0.3460 hc         1 C13       0.051700
     32 HALA        -0.7610     1.0910     0.3510 hc         1 C13       0.051700
     33 HAM          0.3440    -0.6500    -1.8970 h1         1 C13       0.035200
     34 HAMA         0.2940     1.1060    -1.9220 h1         1 C13       0.035200
     35 HAN         -2.1820     1.0520    -1.7300 h1         1 C13       0.053700
     36 HANA        -2.1880    -0.7040    -1.6650 h1         1 C13       0.053700
     37 HAO          2.6980    -0.5880    -2.0980 h1         1 C13       0.043200
     38 HAOA         2.8610     1.1520    -1.9920 h1         1 C13       0.043200
     39 HNAP         1.6660     1.0100     0.1020 hn         1 C13       0.413000
     40 HNAQ        -3.0850     0.6920     0.7550 hn         1 C13       0.304500
     41 HNAR        -5.0830     0.4300     1.3810 hn         1 C13       0.143000
     42 CLB          5.3520    -1.9920     2.5620 cl         1 C13      -0.194500
@<TRIPOS>BOND
     1     1    18 2   
     2     2    20 1   
     3     3     4 ar  
     4     3     5 ar  
     5     3    23 1   
     6     4     6 ar  
     7     4    24 1   
     8     5     7 ar  
     9     5    25 1   
    10     6    22 ar  
    11     6    26 1   
    12     7    22 ar  
    13     7    27 1   
    14     8    19 ar  
    15     8    20 ar  
    16     8    28 1   
    17     9    19 ar  
    18     9    21 ar  
    19     9    29 1   
    20    10    20 ar  
    21    10    21 ar  
    22    10    30 1   
    23    11    12 1   
    24    11    13 1   
    25    11    31 1   
    26    11    32 1   
    27    12    15 1   
    28    12    33 1   
    29    12    34 1   
    30    13    16 1   
    31    13    35 1   
    32    13    36 1   
    33    14    15 1   
    34    14    21 1   
    35    14    37 1   
    36    14    38 1   
    37    15    39 1   
    38    16    18 1   
    39    16    40 1   
    40    17    18 1   
    41    17    22 1   
    42    17    41 1   
    43    19    42 1   
@<TRIPOS>SUBSTRUCTURE
     1 C13         1 TEMP              0 ****  ****    0 ROOT
