@<TRIPOS>MOLECULE
C13
   42    43     1     0     0
SMALL
No Charge or Current Charge


@<TRIPOS>ATOM
      1 OAA         -4.8960    -0.3230    -1.8570 o          1 C13      -0.622100
      2 ClC          6.8730     2.8200     0.2270 cl         1 C13      -0.194500
      3 CAD         -9.6650     0.0840     0.7790 ca         1 C13      -0.141000
      4 CAE         -9.1060    -0.1130    -0.4930 ca         1 C13      -0.081500
      5 CAF         -8.8270     0.2570     1.8920 ca         1 C13      -0.081500
      6 CAG         -7.7100    -0.1380    -0.6560 ca         1 C13      -0.156000
      7 CAH         -7.4310     0.2320     1.7290 ca         1 C13      -0.156000
      8 CAI          6.4200     0.2400     1.0410 ca         1 C13      -0.097000
      9 CAJ          4.5800    -1.1280     0.2210 ca         1 C13      -0.094000
     10 CAK          4.8590     1.1470    -0.5940 ca         1 C13      -0.094000
     11 CAL         -0.7720    -0.0840    -0.4940 c3         1 C13      -0.099400
     12 CAM          0.4310    -0.2310    -1.4430 c3         1 C13       0.163800
     13 CAN         -2.1190    -0.2240    -1.2260 c3         1 C13       0.115000
     14 CAO          2.9180    -0.2410    -1.4850 c3         1 C13       0.206100
     15 NAP          1.6880    -0.1000    -0.6860 n7         1 C13      -0.866400
     16 NAQ         -3.2500    -0.0820    -0.3080 ns         1 C13      -0.522900
     17 NAR         -5.4380     0.0230     0.3730 ns         1 C13      -0.164000
     18 CAS         -4.5690    -0.1420    -0.6930 c          1 C13       0.662100
     19 CAT          5.7130    -0.9720     1.0380 ca         1 C13       0.123500
     20 CAU          5.9910     1.2980     0.2250 ca         1 C13       0.123500
     21 CAV          4.1460    -0.0690    -0.6020 ca         1 C13      -0.071300
     22 CAW         -6.8570     0.0350     0.4580 ca         1 C13       0.000000
     23 HAD        -10.7460     0.1030     0.9030 ha         1 C13       0.115000
     24 HAE         -9.7560    -0.2470    -1.3560 ha         1 C13       0.112000
     25 HAF         -9.2580     0.4100     2.8790 ha         1 C13       0.112000
     26 HAG         -7.3130    -0.2920    -1.6530 ha         1 C13       0.126500
     27 HAH         -6.7920     0.3670     2.5990 ha         1 C13       0.126500
     28 HAI          7.2950     0.3590     1.6740 ha         1 C13       0.145000
     29 HAJ          4.0370    -2.0700     0.2290 ha         1 C13       0.140500
     30 HAK          4.5370     1.9750    -1.2200 ha         1 C13       0.140500
     31 HAL         -0.7090    -0.8470     0.2910 hc         1 C13       0.051700
     32 HALA        -0.7300     0.8960    -0.0030 hc         1 C13       0.051700
     33 HAM          0.3820    -1.2130    -1.9350 h1         1 C13       0.035200
     34 HAMA         0.3700     0.5400    -2.2240 h1         1 C13       0.035200
     35 HAN         -2.1970     0.5460    -2.0050 h1         1 C13       0.053700
     36 HANA        -2.1760    -1.2090    -1.7080 h1         1 C13       0.053700
     37 HAO          2.9570    -1.2310    -1.9610 h1         1 C13       0.043200
     38 HAOA         2.9430     0.5080    -2.2900 h1         1 C13       0.043200
     39 HNAP         1.7040     0.8280    -0.2470 hn         1 C13       0.413000
     40 HNAQ        -3.0610     0.0700     0.6750 hn         1 C13       0.304500
     41 HNAR        -4.9790     0.1610     1.2630 hn         1 C13       0.143000
     42 ClB          6.2450    -2.3000     2.0610 cl         1 C13      -0.194500
@<TRIPOS>BOND
     1     1    18 2   
     2     2    20 1   
     3     3     4 ar  
     4     3     5 ar  
     5     3    23 1   
     6     4     6 ar  
     7     4    24 1   
     8     5     7 ar  
     9     5    25 1   
    10     6    22 ar  
    11     6    26 1   
    12     7    22 ar  
    13     7    27 1   
    14     8    19 ar  
    15     8    20 ar  
    16     8    28 1   
    17     9    19 ar  
    18     9    21 ar  
    19     9    29 1   
    20    10    20 ar  
    21    10    21 ar  
    22    10    30 1   
    23    11    12 1   
    24    11    13 1   
    25    11    31 1   
    26    11    32 1   
    27    12    15 1   
    28    12    33 1   
    29    12    34 1   
    30    13    16 1   
    31    13    35 1   
    32    13    36 1   
    33    14    15 1   
    34    14    21 1   
    35    14    37 1   
    36    14    38 1   
    37    15    39 1   
    38    16    18 1   
    39    16    40 1   
    40    17    18 1   
    41    17    22 1   
    42    17    41 1   
    43    19    42 1   
@<TRIPOS>SUBSTRUCTURE
     1 C13         1 TEMP              0 ****  ****    0 ROOT
