@<TRIPOS>MOLECULE
C14
   44    43     1     0     0
SMALL
abcg2


@<TRIPOS>ATOM
      1 C01         -0.3520    -0.0020     8.2620 c3         1 C14      -0.088100
      2 C02          0.4890     0.0040     6.9930 c3         1 C14      -0.074400
      3 C03         -0.3580     0.0020     5.7260 c3         1 C14      -0.075400
      4 C04          0.4670     0.0090     4.4450 c3         1 C14      -0.074400
      5 C05         -0.3860     0.0060     3.1820 c3         1 C14      -0.074400
      6 C06          0.4360     0.0140     1.8990 c3         1 C14      -0.074400
      7 C07         -0.4190     0.0090     0.6370 c3         1 C14      -0.074400
      8 C08          0.4020     0.0160    -0.6460 c3         1 C14      -0.074400
      9 C09         -0.4530     0.0110    -1.9080 c3         1 C14      -0.074400
     10 C10          0.3680     0.0180    -3.1910 c3         1 C14      -0.074400
     11 C11         -0.4840     0.0150    -4.4540 c3         1 C14      -0.074400
     12 C12          0.3410     0.0190    -5.7350 c3         1 C14      -0.075400
     13 C13         -0.5070     0.0170    -7.0020 c3         1 C14      -0.074400
     14 C14          0.3340     0.0230    -8.2710 c3         1 C14      -0.088100
     15 H011         0.2690    -0.0000     9.1590 hc         1 C14       0.031367
     16 H012        -1.0000     0.8760     8.3080 hc         1 C14       0.031367
     17 H013        -0.9920    -0.8850     8.3050 hc         1 C14       0.031367
     18 H021         1.1430     0.8820     6.9890 hc         1 C14       0.036700
     19 H022         1.1510    -0.8670     6.9870 hc         1 C14       0.036700
     20 H031        -1.0130    -0.8770     5.7310 hc         1 C14       0.036700
     21 H032        -1.0230     0.8730     5.7340 hc         1 C14       0.036700
     22 H041         1.1210     0.8880     4.4390 hc         1 C14       0.036700
     23 H042         1.1310    -0.8630     4.4360 hc         1 C14       0.036700
     24 H051        -1.0400    -0.8730     3.1890 hc         1 C14       0.036700
     25 H052        -1.0510     0.8770     3.1920 hc         1 C14       0.036700
     26 H061         1.0890     0.8940     1.8910 hc         1 C14       0.036700
     27 H062         1.1020    -0.8570     1.8890 hc         1 C14       0.036700
     28 H071        -1.0720    -0.8720     0.6450 hc         1 C14       0.036950
     29 H072        -1.0850     0.8790     0.6480 hc         1 C14       0.036950
     30 H081         1.0540     0.8970    -0.6540 hc         1 C14       0.036950
     31 H082         1.0680    -0.8540    -0.6560 hc         1 C14       0.036950
     32 H091        -1.1070    -0.8690    -1.9000 hc         1 C14       0.036700
     33 H092        -1.1190     0.8820    -1.8980 hc         1 C14       0.036700
     34 H101         1.0230     0.8960    -3.1970 hc         1 C14       0.036700
     35 H102         1.0320    -0.8540    -3.2000 hc         1 C14       0.036700
     36 H111        -1.1410    -0.8630    -4.4470 hc         1 C14       0.036700
     37 H112        -1.1470     0.8880    -4.4460 hc         1 C14       0.036700
     38 H121         0.9970     0.8970    -5.7410 hc         1 C14       0.036700
     39 H122         1.0040    -0.8530    -5.7420 hc         1 C14       0.036700
     40 H131        -1.1610    -0.8610    -6.9970 hc         1 C14       0.036700
     41 H132        -1.1690     0.8880    -6.9950 hc         1 C14       0.036700
     42 H141        -0.2870     0.0200    -9.1680 hc         1 C14       0.031367
     43 H142         0.9730     0.9070    -8.3140 hc         1 C14       0.031367
     44 H143         0.9830    -0.8550    -8.3160 hc         1 C14       0.031367
@<TRIPOS>BOND
     1     1     2 1   
     2     1    15 1   
     3     1    16 1   
     4     1    17 1   
     5     2     3 1   
     6     2    18 1   
     7     2    19 1   
     8     3     4 1   
     9     3    20 1   
    10     3    21 1   
    11     4     5 1   
    12     4    22 1   
    13     4    23 1   
    14     5     6 1   
    15     5    24 1   
    16     5    25 1   
    17     6     7 1   
    18     6    26 1   
    19     6    27 1   
    20     7     8 1   
    21     7    28 1   
    22     7    29 1   
    23     8     9 1   
    24     8    30 1   
    25     8    31 1   
    26     9    10 1   
    27     9    32 1   
    28     9    33 1   
    29    10    11 1   
    30    10    34 1   
    31    10    35 1   
    32    11    12 1   
    33    11    36 1   
    34    11    37 1   
    35    12    13 1   
    36    12    38 1   
    37    12    39 1   
    38    13    14 1   
    39    13    40 1   
    40    13    41 1   
    41    14    42 1   
    42    14    43 1   
    43    14    44 1   
@<TRIPOS>SUBSTRUCTURE
     1 C14         1 TEMP              0 ****  ****    0 ROOT
