@<TRIPOS>MOLECULE
C14
   44    43     1     0     0
SMALL
No Charge or Current Charge


@<TRIPOS>ATOM
      1 C01         -0.3480    -0.0020     8.3700 c3         1 C14      -0.088100
      2 C02          0.4890     0.0050     7.0760 c3         1 C14      -0.074400
      3 C03         -0.3760     0.0020     5.7960 c3         1 C14      -0.075400
      4 C04          0.4630     0.0090     4.5000 c3         1 C14      -0.074400
      5 C05         -0.4020     0.0060     3.2200 c3         1 C14      -0.074400
      6 C06          0.4370     0.0120     1.9230 c3         1 C14      -0.074400
      7 C07         -0.4280     0.0090     0.6440 c3         1 C14      -0.074400
      8 C08          0.4110     0.0150    -0.6530 c3         1 C14      -0.074400
      9 C09         -0.4540     0.0120    -1.9320 c3         1 C14      -0.074400
     10 C10          0.3850     0.0180    -3.2290 c3         1 C14      -0.074400
     11 C11         -0.4800     0.0150    -4.5080 c3         1 C14      -0.074400
     12 C12          0.3580     0.0200    -5.8050 c3         1 C14      -0.075400
     13 C13         -0.5060     0.0170    -7.0850 c3         1 C14      -0.074400
     14 C14          0.3300     0.0230    -8.3790 c3         1 C14      -0.088100
     15 H011         0.3070     0.0010     9.2490 hc         1 C14       0.031367
     16 H012        -0.9930     0.8840     8.4200 hc         1 C14       0.031367
     17 H013        -0.9820    -0.8960     8.4170 hc         1 C14       0.031367
     18 H021         1.1360     0.8910     7.0750 hc         1 C14       0.036700
     19 H022         1.1470    -0.8730     7.0720 hc         1 C14       0.036700
     20 H031        -1.0240    -0.8840     5.8020 hc         1 C14       0.036700
     21 H032        -1.0340     0.8800     5.8040 hc         1 C14       0.036700
     22 H041         1.1100     0.8950     4.4940 hc         1 C14       0.036700
     23 H042         1.1210    -0.8690     4.4920 hc         1 C14       0.036700
     24 H051        -1.0500    -0.8800     3.2250 hc         1 C14       0.036700
     25 H052        -1.0600     0.8840     3.2280 hc         1 C14       0.036700
     26 H061         1.0840     0.8980     1.9180 hc         1 C14       0.036700
     27 H062         1.0950    -0.8660     1.9160 hc         1 C14       0.036700
     28 H071        -1.0760    -0.8770     0.6490 hc         1 C14       0.036950
     29 H072        -1.0860     0.8870     0.6520 hc         1 C14       0.036950
     30 H081         1.0580     0.9010    -0.6580 hc         1 C14       0.036950
     31 H082         1.0680    -0.8630    -0.6600 hc         1 C14       0.036950
     32 H091        -1.1020    -0.8740    -1.9270 hc         1 C14       0.036700
     33 H092        -1.1120     0.8900    -1.9250 hc         1 C14       0.036700
     34 H101         1.0320     0.9040    -3.2340 hc         1 C14       0.036700
     35 H102         1.0420    -0.8600    -3.2360 hc         1 C14       0.036700
     36 H111        -1.1280    -0.8710    -4.5030 hc         1 C14       0.036700
     37 H112        -1.1380     0.8930    -4.5010 hc         1 C14       0.036700
     38 H121         1.0060     0.9060    -5.8110 hc         1 C14       0.036700
     39 H122         1.0160    -0.8580    -5.8130 hc         1 C14       0.036700
     40 H131        -1.1540    -0.8680    -7.0830 hc         1 C14       0.036700
     41 H132        -1.1640     0.8950    -7.0820 hc         1 C14       0.036700
     42 H141        -0.3250     0.0200    -9.2570 hc         1 C14       0.031367
     43 H142         0.9650     0.9160    -8.4270 hc         1 C14       0.031367
     44 H143         0.9750    -0.8630    -8.4280 hc         1 C14       0.031367
@<TRIPOS>BOND
     1     1     2 1   
     2     1    15 1   
     3     1    16 1   
     4     1    17 1   
     5     2     3 1   
     6     2    18 1   
     7     2    19 1   
     8     3     4 1   
     9     3    20 1   
    10     3    21 1   
    11     4     5 1   
    12     4    22 1   
    13     4    23 1   
    14     5     6 1   
    15     5    24 1   
    16     5    25 1   
    17     6     7 1   
    18     6    26 1   
    19     6    27 1   
    20     7     8 1   
    21     7    28 1   
    22     7    29 1   
    23     8     9 1   
    24     8    30 1   
    25     8    31 1   
    26     9    10 1   
    27     9    32 1   
    28     9    33 1   
    29    10    11 1   
    30    10    34 1   
    31    10    35 1   
    32    11    12 1   
    33    11    36 1   
    34    11    37 1   
    35    12    13 1   
    36    12    38 1   
    37    12    39 1   
    38    13    14 1   
    39    13    40 1   
    40    13    41 1   
    41    14    42 1   
    42    14    43 1   
    43    14    44 1   
@<TRIPOS>SUBSTRUCTURE
     1 C14         1 TEMP              0 ****  ****    0 ROOT
