@<TRIPOS>MOLECULE
C15
   59    58     1     0     0
SMALL
bcc


@<TRIPOS>ATOM
      1 C1           1.2430    -7.7730    -4.7130 c3         1 C15      -0.252600
      2 C2           1.9430    -6.5000    -5.1670 c3         1 C15      -0.056400
      3 C3           3.4170    -6.7990    -5.3700 c3         1 C15       0.129800
      4 C5          -3.1950     3.9470    -3.7380 c3         1 C15      -0.089100
      5 C6          -1.7800     3.4500    -3.9990 c3         1 C15      -0.073400
      6 C7          -1.7270     2.3130    -5.0130 c3         1 C15      -0.076400
      7 C8          -0.3190     1.7810    -5.2510 c3         1 C15      -0.072400
      8 N1           4.2780    -5.6160    -5.7380 n4         1 C15      -0.612800
      9 C1N          4.2220    -4.5820    -4.6670 c3         1 C15       0.104100
     10 C2N          5.6770    -6.1150    -5.8530 c3         1 C15       0.104100
     11 C9          -0.2650     0.6510    -6.2710 c3         1 C15      -0.076400
     12 C10          1.1340     0.0770    -6.4610 c3         1 C15      -0.071400
     13 C11          1.1930    -1.0360    -7.4980 c3         1 C15      -0.079400
     14 C12          2.5780    -1.6590    -7.6290 c3         1 C15      -0.072400
     15 C13          2.6400    -2.7480    -8.6930 c3         1 C15      -0.087400
     16 C14          4.0280    -3.3580    -8.8860 c3         1 C15      -0.072400
     17 C15          4.6700    -3.9360    -7.6230 c3         1 C15      -0.096400
     18 C16          3.8080    -5.0450    -7.0490 c3         1 C15       0.121800
     19 S1          -0.5230    -7.5160    -4.4500 s6         1 C15       1.199800
     20 O1S         -1.0600    -7.0860    -5.7570 o          1 C15      -0.674533
     21 O2S         -0.6190    -6.4700    -3.4130 o          1 C15      -0.674533
     22 O3S         -1.0380    -8.8260    -4.0090 o          1 C15      -0.674533
     23 H1C1         1.6600    -8.1370    -3.7730 h1         1 C15       0.077200
     24 H1C2         1.3470    -8.5660    -5.4570 h1         1 C15       0.077200
     25 H2C1         1.7990    -5.7300    -4.4080 hc         1 C15       0.073200
     26 H2C2         1.4780    -6.1550    -6.0910 hc         1 C15       0.073200
     27 H3C1         3.5530    -7.5320    -6.1650 hx         1 C15       0.082200
     28 H3C2         3.8470    -7.2100    -4.4560 hx         1 C15       0.082200
     29 H5C1        -3.8270     3.1460    -3.3500 hc         1 C15       0.032367
     30 H5C2        -3.6600     4.3170    -4.6530 hc         1 C15       0.032367
     31 H5C3        -3.2070     4.7590    -3.0100 hc         1 C15       0.032367
     32 H6C1        -1.3300     3.1170    -3.0590 hc         1 C15       0.035200
     33 H6C2        -1.1600     4.2790    -4.3540 hc         1 C15       0.035200
     34 H7C1        -2.3680     1.4920    -4.6700 hc         1 C15       0.040700
     35 H7C2        -2.1540     2.6540    -5.9620 hc         1 C15       0.040700
     36 H8C1         0.3290     2.6010    -5.5830 hc         1 C15       0.034700
     37 H8C2         0.0990     1.4310    -4.3010 hc         1 C15       0.034700
     38 HCN1         3.2540    -4.0890    -4.6750 hx         1 C15       0.089367
     39 HCN2         4.3800    -5.0610    -3.7040 hx         1 C15       0.089367
     40 HCN3         5.0010    -3.8440    -4.8310 hx         1 C15       0.089367
     41 HCN4         5.7330    -6.8440    -6.6570 hx         1 C15       0.089367
     42 HCN5         6.3510    -5.2890    -6.0560 hx         1 C15       0.089367
     43 HCN6         5.9590    -6.5820    -4.9130 hx         1 C15       0.089367
     44 H9C1        -0.9430    -0.1520    -5.9600 hc         1 C15       0.043200
     45 H9C2        -0.6460     1.0110    -7.2340 hc         1 C15       0.043200
     46 H101         1.4980    -0.3020    -5.5000 hc         1 C15       0.033200
     47 H102         1.8220     0.8800    -6.7500 hc         1 C15       0.033200
     48 H111         0.8750    -0.6450    -8.4710 hc         1 C15       0.048200
     49 H112         0.4720    -1.8180    -7.2360 hc         1 C15       0.048200
     50 H121         2.8710    -2.0640    -6.6540 hc         1 C15       0.028700
     51 H122         3.3130    -0.8810    -7.8630 hc         1 C15       0.028700
     52 H131         1.9070    -3.5290    -8.4610 hc         1 C15       0.054200
     53 H132         2.3190    -2.3300    -9.6520 hc         1 C15       0.054200
     54 H141         3.9760    -4.1380    -9.6510 hc         1 C15       0.054200
     55 H142         4.7020    -2.5920    -9.2780 hc         1 C15       0.054200
     56 H151         5.6590    -4.3150    -7.8830 hc         1 C15       0.053200
     57 H152         4.8170    -3.1380    -6.8930 hc         1 C15       0.053200
     58 H161         2.7970    -4.6830    -6.8720 hx         1 C15       0.102200
     59 H162         3.7440    -5.8790    -7.7490 hx         1 C15       0.102200
@<TRIPOS>BOND
     1     1     2 1   
     2     1    19 1   
     3     1    23 1   
     4     1    24 1   
     5     2     3 1   
     6     2    25 1   
     7     2    26 1   
     8     3     8 1   
     9     3    27 1   
    10     3    28 1   
    11     4     5 1   
    12     4    29 1   
    13     4    30 1   
    14     4    31 1   
    15     5     6 1   
    16     5    32 1   
    17     5    33 1   
    18     6     7 1   
    19     6    34 1   
    20     6    35 1   
    21     7    11 1   
    22     7    36 1   
    23     7    37 1   
    24     8     9 1   
    25     8    10 1   
    26     8    18 1   
    27     9    38 1   
    28     9    39 1   
    29     9    40 1   
    30    10    41 1   
    31    10    42 1   
    32    10    43 1   
    33    11    12 1   
    34    11    44 1   
    35    11    45 1   
    36    12    13 1   
    37    12    46 1   
    38    12    47 1   
    39    13    14 1   
    40    13    48 1   
    41    13    49 1   
    42    14    15 1   
    43    14    50 1   
    44    14    51 1   
    45    15    16 1   
    46    15    52 1   
    47    15    53 1   
    48    16    17 1   
    49    16    54 1   
    50    16    55 1   
    51    17    18 1   
    52    17    56 1   
    53    17    57 1   
    54    18    58 1   
    55    18    59 1   
    56    19    20 1   
    57    19    21 1   
    58    19    22 1   
@<TRIPOS>SUBSTRUCTURE
     1 C15         1 TEMP              0 ****  ****    0 ROOT
