@<TRIPOS>MOLECULE
C15
   59    58     1     0     0
SMALL
No Charge or Current Charge


@<TRIPOS>ATOM
      1 C1           1.1420    -7.7590    -4.6560 c3         1 C15      -0.363400
      2 C2           1.9720    -6.5150    -5.0650 c3         1 C15      -0.056400
      3 C3           3.4410    -6.8770    -5.3720 c3         1 C15       0.101600
      4 C5          -3.3420     4.0820    -3.8370 c3         1 C15      -0.089100
      5 C6          -1.9340     3.4680    -3.9600 c3         1 C15      -0.073400
      6 C7          -1.8390     2.3860    -5.0580 c3         1 C15      -0.076400
      7 C8          -0.4270     1.7720    -5.1810 c3         1 C15      -0.072400
      8 N1           4.3950    -5.7430    -5.7800 n4         1 C15      -0.500000
      9 C1N          4.4980    -4.7140    -4.6420 c3         1 C15       0.075900
     10 C2N          5.7820    -6.3540    -6.0220 c3         1 C15       0.075900
     11 C9          -0.3320     0.6900    -6.2800 c3         1 C15      -0.076400
     12 C10          1.0790     0.0760    -6.4020 c3         1 C15      -0.071400
     13 C11          1.1750    -1.0050    -7.5000 c3         1 C15      -0.079400
     14 C12          2.5860    -1.6190    -7.6210 c3         1 C15      -0.072400
     15 C13          2.6780    -2.7090    -8.7150 c3         1 C15      -0.087400
     16 C14          4.1000    -3.2910    -8.9240 c3         1 C15      -0.072400
     17 C15          4.7410    -3.9380    -7.6740 c3         1 C15      -0.096400
     18 C16          3.8850    -5.0710    -7.0670 c3         1 C15       0.093600
     19 S1          -0.5920    -7.3970    -4.2830 s6         1 C15       1.310600
     20 O1S         -1.1090    -6.8320    -5.5370 o          1 C15      -0.674533
     21 O2S         -0.5180    -6.4470    -3.1640 o          1 C15      -0.674533
     22 O3S         -1.1440    -8.7130    -3.9310 o          1 C15      -0.674533
     23 H1C1         1.5580    -8.2180    -3.7520 h1         1 C15       0.077200
     24 H1C2         1.1320    -8.4970    -5.4650 h1         1 C15       0.077200
     25 H2C1         1.9420    -5.7740    -4.2570 hc         1 C15       0.073200
     26 H2C2         1.5200    -6.0500    -5.9480 hc         1 C15       0.073200
     27 H3C1         3.4500    -7.6130    -6.1790 hx         1 C15       0.082200
     28 H3C2         3.8670    -7.3540    -4.4860 hx         1 C15       0.082200
     29 H5C1        -4.0810     3.3110    -3.5890 hc         1 C15       0.032367
     30 H5C2        -3.6410     4.5580    -4.7790 hc         1 C15       0.032367
     31 H5C3        -3.3600     4.8420    -3.0470 hc         1 C15       0.032367
     32 H6C1        -1.6500     3.0310    -2.9940 hc         1 C15       0.035200
     33 H6C2        -1.2140     4.2680    -4.1740 hc         1 C15       0.035200
     34 H7C1        -2.5610     1.5890    -4.8420 hc         1 C15       0.040700
     35 H7C2        -2.1250     2.8260    -6.0220 hc         1 C15       0.040700
     36 H8C1         0.2950     2.5690    -5.3970 hc         1 C15       0.034700
     37 H8C2        -0.1410     1.3320    -4.2170 hc         1 C15       0.034700
     38 HCN1         3.5250    -4.2430    -4.4910 hx         1 C15       0.089367
     39 HCN2         4.8090    -5.2220    -3.7260 hx         1 C15       0.089367
     40 HCN3         5.2350    -3.9550    -4.9080 hx         1 C15       0.089367
     41 HCN4         5.7200    -7.0740    -6.8400 hx         1 C15       0.089367
     42 HCN5         6.4860    -5.5610    -6.2820 hx         1 C15       0.089367
     43 HCN6         6.1170    -6.8570    -5.1130 hx         1 C15       0.089367
     44 H9C1        -1.0540    -0.1070    -6.0630 hc         1 C15       0.043200
     45 H9C2        -0.6190     1.1300    -7.2430 hc         1 C15       0.043200
     46 H101         1.3660    -0.3630    -5.4380 hc         1 C15       0.033200
     47 H102         1.8020     0.8730    -6.6180 hc         1 C15       0.033200
     48 H111         0.8880    -0.5660    -8.4640 hc         1 C15       0.048200
     49 H112         0.4530    -1.8030    -7.2840 hc         1 C15       0.048200
     50 H121         2.8660    -2.0470    -6.6510 hc         1 C15       0.028700
     51 H122         3.3090    -0.8230    -7.8430 hc         1 C15       0.028700
     52 H131         1.9790    -3.5210    -8.4790 hc         1 C15       0.054200
     53 H132         2.3400    -2.2820    -9.6670 hc         1 C15       0.054200
     54 H141         4.0560    -4.0390    -9.7260 hc         1 C15       0.054200
     55 H142         4.7610    -2.4930    -9.2850 hc         1 C15       0.054200
     56 H151         5.7230    -4.3370    -7.9550 hc         1 C15       0.053200
     57 H152         4.9240    -3.1650    -6.9200 hc         1 C15       0.053200
     58 H161         2.8960    -4.6660    -6.8460 hx         1 C15       0.102200
     59 H162         3.7620    -5.8530    -7.8200 hx         1 C15       0.102200
@<TRIPOS>BOND
     1     1     2 1   
     2     1    19 1   
     3     1    23 1   
     4     1    24 1   
     5     2     3 1   
     6     2    25 1   
     7     2    26 1   
     8     3     8 1   
     9     3    27 1   
    10     3    28 1   
    11     4     5 1   
    12     4    29 1   
    13     4    30 1   
    14     4    31 1   
    15     5     6 1   
    16     5    32 1   
    17     5    33 1   
    18     6     7 1   
    19     6    34 1   
    20     6    35 1   
    21     7    11 1   
    22     7    36 1   
    23     7    37 1   
    24     8     9 1   
    25     8    10 1   
    26     8    18 1   
    27     9    38 1   
    28     9    39 1   
    29     9    40 1   
    30    10    41 1   
    31    10    42 1   
    32    10    43 1   
    33    11    12 1   
    34    11    44 1   
    35    11    45 1   
    36    12    13 1   
    37    12    46 1   
    38    12    47 1   
    39    13    14 1   
    40    13    48 1   
    41    13    49 1   
    42    14    15 1   
    43    14    50 1   
    44    14    51 1   
    45    15    16 1   
    46    15    52 1   
    47    15    53 1   
    48    16    17 1   
    49    16    54 1   
    50    16    55 1   
    51    17    18 1   
    52    17    56 1   
    53    17    57 1   
    54    18    58 1   
    55    18    59 1   
    56    19    20 1   
    57    19    21 1   
    58    19    22 1   
@<TRIPOS>SUBSTRUCTURE
     1 C15         1 TEMP              0 ****  ****    0 ROOT
