@<TRIPOS>MOLECULE
C16
   30    32     1     0     0
SMALL
abcg2


@<TRIPOS>ATOM
      1 N41         -6.6100     0.2350     0.1340 n1         1 C16      -0.450000
      2 C39         -5.4610     0.1710     0.0980 cg         1 C16       0.323000
      3 C32         -4.0360     0.0930     0.0520 ca         1 C16      -0.018000
      4 C30         -3.3230     0.9520    -0.7820 ca         1 C16      -0.064000
      5 C28         -1.9440     0.8700    -0.8300 ca         1 C16      -0.104500
      6 C34         -3.3690    -0.8410     0.8440 ca         1 C16      -0.064000
      7 C36         -1.9890    -0.9090     0.8040 ca         1 C16      -0.104500
      8 C26         -1.2800    -0.0560    -0.0340 ca         1 C16       0.076600
      9 N19          0.1260    -0.1340    -0.0780 n          1 C16      -0.325600
     10 C21          0.8340    -1.2840    -0.4270 c          1 C16       0.591600
     11 O23          0.3420    -2.3350    -0.7380 o          1 C16      -0.471000
     12 C6           2.2620    -0.9140    -0.3370 ca         1 C16      -0.140600
     13 C4           3.3760    -1.6860    -0.5810 ca         1 C16      -0.051000
     14 C2           4.6120    -1.0670    -0.4120 ca         1 C16      -0.092000
     15 C15          0.9790     0.9330     0.2270 c          1 C16       0.592600
     16 O17          0.6090     2.0260     0.5630 o          1 C16      -0.474000
     17 C8           2.3530     0.4140     0.0550 ca         1 C16      -0.150600
     18 C10          3.5730     1.0500     0.2320 ca         1 C16      -0.002300
     19 C13          3.7000     2.4800     0.6520 c3         1 C16      -0.054800
     20 C1           4.7020     0.2620    -0.0160 ca         1 C16      -0.102000
     21 H30         -3.8450     1.6730    -1.3960 ha         1 C16       0.130000
     22 H28         -1.3910     1.5200    -1.4930 ha         1 C16       0.132000
     23 H34         -3.9260    -1.5030     1.4930 ha         1 C16       0.130000
     24 H36         -1.4690    -1.6170     1.4350 ha         1 C16       0.132000
     25 H4           3.2990    -2.7200    -0.8870 ha         1 C16       0.141000
     26 H2           5.5210    -1.6270    -0.5900 ha         1 C16       0.124000
     27 H13          3.2150     2.6600     1.6110 hc         1 C16       0.057700
     28 H13A         4.7480     2.7600     0.7460 hc         1 C16       0.057700
     29 H13B         3.2350     3.1490    -0.0730 hc         1 C16       0.057700
     30 H1           5.6830     0.7040     0.1070 ha         1 C16       0.122000
@<TRIPOS>BOND
     1     1     2 3   
     2     2     3 1   
     3     3     4 ar  
     4     3     6 ar  
     5     4     5 ar  
     6     4    21 1   
     7     5     8 ar  
     8     5    22 1   
     9     6     7 ar  
    10     6    23 1   
    11     7     8 ar  
    12     7    24 1   
    13     8     9 1   
    14     9    10 1   
    15     9    15 1   
    16    10    11 2   
    17    10    12 1   
    18    12    13 ar  
    19    12    17 ar  
    20    13    14 ar  
    21    13    25 1   
    22    14    20 ar  
    23    14    26 1   
    24    15    16 2   
    25    15    17 1   
    26    17    18 ar  
    27    18    19 1   
    28    18    20 ar  
    29    19    27 1   
    30    19    28 1   
    31    19    29 1   
    32    20    30 1   
@<TRIPOS>SUBSTRUCTURE
     1 C16         1 TEMP              0 ****  ****    0 ROOT
