@<TRIPOS>MOLECULE
C16
   30    32     1     0     0
SMALL
No Charge or Current Charge


@<TRIPOS>ATOM
      1 N41         -6.7280     0.2340     0.1030 n1         1 C16      -0.450000
      2 C39         -5.5620     0.1740     0.0840 cg         1 C16       0.323000
      3 C32         -4.1270     0.0950     0.0500 ca         1 C16      -0.018000
      4 C30         -3.3770     1.0970    -0.5940 ca         1 C16      -0.064000
      5 C28         -1.9740     1.0180    -0.6270 ca         1 C16      -0.104500
      6 C34         -3.4620    -0.9850     0.6600 ca         1 C16      -0.064000
      7 C36         -2.0580    -1.0610     0.6250 ca         1 C16      -0.104500
      8 C26         -1.3010    -0.0610    -0.0180 ca         1 C16       0.076600
      9 N19          0.1330    -0.1400    -0.0520 n          1 C16      -0.325600
     10 C21          0.8520    -1.3130    -0.3230 c          1 C16       0.591600
     11 O23          0.3960    -2.4170    -0.5850 o          1 C16      -0.471000
     12 C6           2.2910    -0.9380    -0.2540 ca         1 C16      -0.140600
     13 C4           3.4310    -1.7300    -0.4450 ca         1 C16      -0.051000
     14 C2           4.6910    -1.1100    -0.3230 ca         1 C16      -0.092000
     15 C15          0.9910     0.9460     0.1810 c          1 C16       0.592600
     16 O17          0.6620     2.0900     0.4630 o          1 C16      -0.474000
     17 C8           2.3820     0.4140     0.0430 ca         1 C16      -0.150600
     18 C10          3.6280     1.0560     0.1710 ca         1 C16      -0.002300
     19 C13          3.7390     2.5380     0.4980 c3         1 C16      -0.054800
     20 C1           4.7880     0.2690    -0.0180 ca         1 C16      -0.102000
     21 H30         -3.8800     1.9360    -1.0730 ha         1 C16       0.130000
     22 H28         -1.4130     1.7950    -1.1400 ha         1 C16       0.132000
     23 H34         -4.0300    -1.7650     1.1640 ha         1 C16       0.130000
     24 H36         -1.5620    -1.8970     1.1130 ha         1 C16       0.132000
     25 H4           3.3470    -2.7900    -0.6790 ha         1 C16       0.141000
     26 H2           5.5960    -1.6970    -0.4640 ha         1 C16       0.124000
     27 H13          3.2760     2.7620     1.4660 hc         1 C16       0.057700
     28 H13A         4.7840     2.8660     0.5490 hc         1 C16       0.057700
     29 H13B         3.2390     3.1470    -0.2650 hc         1 C16       0.057700
     30 H1           5.7720     0.7240     0.0710 ha         1 C16       0.122000
@<TRIPOS>BOND
     1     1     2 3   
     2     2     3 1   
     3     3     4 ar  
     4     3     6 ar  
     5     4     5 ar  
     6     4    21 1   
     7     5     8 ar  
     8     5    22 1   
     9     6     7 ar  
    10     6    23 1   
    11     7     8 ar  
    12     7    24 1   
    13     8     9 1   
    14     9    10 1   
    15     9    15 1   
    16    10    11 2   
    17    10    12 1   
    18    12    13 ar  
    19    12    17 ar  
    20    13    14 ar  
    21    13    25 1   
    22    14    20 ar  
    23    14    26 1   
    24    15    16 2   
    25    15    17 1   
    26    17    18 ar  
    27    18    19 1   
    28    18    20 ar  
    29    19    27 1   
    30    19    28 1   
    31    19    29 1   
    32    20    30 1   
@<TRIPOS>SUBSTRUCTURE
     1 C16         1 TEMP              0 ****  ****    0 ROOT
