@<TRIPOS>MOLECULE
C17
   33    35     1     0     0
SMALL
No Charge or Current Charge


@<TRIPOS>ATOM
      1 O2C         -5.3390    -2.9190    -0.7140 o          1 C17      -0.474000
      2 C2          -4.7150    -1.9020    -0.4490 c          1 C17       0.671300
      3 O1          -3.3610    -1.8390    -0.5740 os         1 C17      -0.332200
      4 C9          -2.6260    -0.7220    -0.2880 ca         1 C17       0.203100
      5 C10         -3.2480     0.4650     0.1650 ca         1 C17      -0.174800
      6 C4          -4.7210     0.5050     0.3360 cc         1 C17      -0.059400
      7 C4C         -5.5490     1.6650     0.8030 c          1 C17       0.578100
      8 O4C         -5.1440     2.7770     1.1220 o          1 C17      -0.495100
      9 C3          -5.3770    -0.6760     0.0210 cd         1 C17      -0.294200
     10 C8          -1.2390    -0.7970    -0.4610 ca         1 C17      -0.183000
     11 C7          -0.4280     0.3070    -0.1880 ca         1 C17       0.198100
     12 C6          -1.0210     1.4990     0.2640 ca         1 C17      -0.231000
     13 C5          -2.4140     1.5780     0.4390 ca         1 C17      -0.001000
     14 O7C          0.9310     0.1740    -0.3770 os         1 C17      -0.333100
     15 C7B          1.8490     1.2500    -0.1230 c3         1 C17       0.210900
     16 C1B          3.2580     0.7610    -0.4280 ca         1 C17      -0.093300
     17 C6B          3.8490     1.0230    -1.6810 ca         1 C17      -0.081000
     18 C5B          5.1500     0.5680    -1.9610 ca         1 C17      -0.106000
     19 C4B          5.8670    -0.1520    -0.9900 ca         1 C17      -0.088000
     20 C3B          5.2810    -0.4170     0.2590 ca         1 C17       0.114000
     21 Cl3          6.1770    -1.3210     1.4730 cl         1 C17      -0.197000
     22 C2B          3.9820     0.0370     0.5400 ca         1 C17      -0.077000
     23 H3          -6.4530    -0.7770     0.1030 ha         1 C17       0.214000
     24 H8          -0.7890    -1.7210    -0.8110 ha         1 C17       0.155000
     25 H5          -2.8180     2.5210     0.7890 ha         1 C17       0.142000
     26 H6          -0.4230     2.3780     0.4860 ha         1 C17       0.126000
     27 H7B1         1.6140     2.1160    -0.7560 h1         1 C17       0.048200
     28 H7B2         1.7930     1.5680     0.9260 h1         1 C17       0.048200
     29 H6B          3.2990     1.5770    -2.4390 ha         1 C17       0.121000
     30 H2B          3.5370    -0.1770     1.5090 ha         1 C17       0.132000
     31 H5B          5.6010     0.7740    -2.9290 ha         1 C17       0.122000
     32 H4B          6.8730    -0.5050    -1.2040 ha         1 C17       0.132000
     33 H4          -6.6390     1.4490     0.8490 h4         1 C17       0.002200
@<TRIPOS>BOND
     1     1     2 2   
     2     2     3 1   
     3     2     9 1   
     4     3     4 1   
     5     4     5 ar  
     6     4    10 ar  
     7     5     6 1   
     8     5    13 ar  
     9     6     7 1   
    10     6     9 2   
    11     7     8 2   
    12     7    33 1   
    13     9    23 1   
    14    10    11 ar  
    15    10    24 1   
    16    11    12 ar  
    17    11    14 1   
    18    12    13 ar  
    19    12    26 1   
    20    13    25 1   
    21    14    15 1   
    22    15    16 1   
    23    15    27 1   
    24    15    28 1   
    25    16    17 ar  
    26    16    22 ar  
    27    17    18 ar  
    28    17    29 1   
    29    18    19 ar  
    30    18    31 1   
    31    19    20 ar  
    32    19    32 1   
    33    20    21 1   
    34    20    22 ar  
    35    22    30 1   
@<TRIPOS>SUBSTRUCTURE
     1 C17         1 TEMP              0 ****  ****    0 ROOT
