@<TRIPOS>MOLECULE
C17
   33    35     1     0     0
SMALL
abcg2


@<TRIPOS>ATOM
      1 O2C         -5.1790    -2.8300    -0.9280 o          1 C17      -0.474000
      2 C2          -4.6360    -1.8120    -0.5850 c          1 C17       0.671300
      3 O1          -3.2890    -1.7500    -0.6680 os         1 C17      -0.332200
      4 C9          -2.5630    -0.6600    -0.3150 ca         1 C17       0.203100
      5 C10         -3.1790     0.5010     0.1740 ca         1 C17      -0.174800
      6 C4          -4.6170     0.4750     0.2820 cc         1 C17      -0.059400
      7 C4C         -5.4550     1.5980     0.7850 c          1 C17       0.578100
      8 O4C         -5.0430     2.6550     1.1840 o          1 C17      -0.495100
      9 C3          -5.3040    -0.6270    -0.0830 cd         1 C17      -0.294200
     10 C8          -1.1960    -0.7660    -0.4690 ca         1 C17      -0.183000
     11 C7          -0.3890     0.3160    -0.1310 ca         1 C17       0.198100
     12 C6          -0.9710     1.4900     0.3610 ca         1 C17      -0.231000
     13 C5          -2.3400     1.5700     0.5070 ca         1 C17      -0.001000
     14 O7C          0.9250     0.1430    -0.3110 os         1 C17      -0.333100
     15 C7B          1.8110     1.2230    -0.0230 c3         1 C17       0.210900
     16 C1B          3.1910     0.7580    -0.3750 ca         1 C17      -0.093300
     17 C6B          3.6570     0.8600    -1.6810 ca         1 C17      -0.081000
     18 C5B          4.9210     0.3930    -2.0100 ca         1 C17      -0.106000
     19 C4B          5.7340    -0.1810    -1.0420 ca         1 C17      -0.088000
     20 C3B          5.2590    -0.2780     0.2570 ca         1 C17       0.114000
     21 CL3          6.2610    -0.9880     1.4800 cl         1 C17      -0.197000
     22 C2B          3.9980     0.1820     0.6000 ca         1 C17      -0.077000
     23 H3          -6.3830    -0.6710    -0.0110 ha         1 C17       0.214000
     24 H8          -0.7580    -1.6790    -0.8520 ha         1 C17       0.155000
     25 H5          -2.7610     2.4860     0.8890 ha         1 C17       0.142000
     26 H6          -0.3720     2.3470     0.6350 ha         1 C17       0.126000
     27 H7B1         1.5380     2.1020    -0.6150 h1         1 C17       0.048200
     28 H7B2         1.7490     1.4920     1.0350 h1         1 C17       0.048200
     29 H6B          3.0340     1.3120    -2.4430 ha         1 C17       0.121000
     30 H2B          3.6460     0.1010     1.6210 ha         1 C17       0.132000
     31 H5B          5.2830     0.4760    -3.0260 ha         1 C17       0.122000
     32 H4B          6.7200    -0.5440    -1.2960 ha         1 C17       0.132000
     33 H4          -6.5340     1.3750     0.7650 h4         1 C17       0.002200
@<TRIPOS>BOND
     1     1     2 2   
     2     2     3 1   
     3     2     9 1   
     4     3     4 1   
     5     4     5 ar  
     6     4    10 ar  
     7     5     6 1   
     8     5    13 ar  
     9     6     7 1   
    10     6     9 2   
    11     7     8 2   
    12     7    33 1   
    13     9    23 1   
    14    10    11 ar  
    15    10    24 1   
    16    11    12 ar  
    17    11    14 1   
    18    12    13 ar  
    19    12    26 1   
    20    13    25 1   
    21    14    15 1   
    22    15    16 1   
    23    15    27 1   
    24    15    28 1   
    25    16    17 ar  
    26    16    22 ar  
    27    17    18 ar  
    28    17    29 1   
    29    18    19 ar  
    30    18    31 1   
    31    19    20 ar  
    32    19    32 1   
    33    20    21 1   
    34    20    22 ar  
    35    22    30 1   
@<TRIPOS>SUBSTRUCTURE
     1 C17         1 TEMP              0 ****  ****    0 ROOT
