@<TRIPOS>MOLECULE
C18
   39    41     1     0     0
SMALL
No Charge or Current Charge


@<TRIPOS>ATOM
      1 O2C          4.8720    -3.3750    -0.3400 o          1 C18      -0.481000
      2 C2           4.2730    -2.3280    -0.1450 c          1 C18       0.674300
      3 O1           2.9240    -2.2360    -0.3020 os         1 C18      -0.337200
      4 C9           2.2240    -1.0800    -0.0990 ca         1 C18       0.210100
      5 C10          2.8830     0.1010     0.3000 ca         1 C18      -0.187800
      6 C4           4.3410     0.1120     0.5130 cc         1 C18       0.043600
      7 N4C          5.4470     2.1950    -0.2110 n7         1 C18      -0.852400
      8 C4C          5.1250     1.3340     0.9480 c3         1 C18       0.188000
      9 C4N          6.1670     3.4420     0.1130 c3         1 C18       0.141100
     10 C3           4.9600    -1.0990     0.2750 cd         1 C18      -0.318200
     11 C8           0.8380    -1.1010    -0.3030 ca         1 C18      -0.178000
     12 C7           0.0770     0.0570    -0.1150 ca         1 C18       0.192100
     13 C6           0.7180     1.2480     0.2800 ca         1 C18      -0.229000
     14 C5           2.1080     1.2680     0.4850 ca         1 C18      -0.021000
     15 O7C         -1.2830    -0.0220    -0.3300 os         1 C18      -0.333100
     16 C7B         -2.1510     1.1110    -0.1640 c3         1 C18       0.210900
     17 C1B         -3.5760     0.6730    -0.4750 ca         1 C18      -0.091300
     18 C6B         -4.1150     0.8650    -1.7630 ca         1 C18      -0.079000
     19 C5B         -5.4310     0.4580    -2.0490 ca         1 C18      -0.105000
     20 C4B         -6.2140    -0.1440    -1.0490 ca         1 C18      -0.089000
     21 C3B         -5.6790    -0.3400     0.2350 ca         1 C18       0.115000
     22 Cl3         -6.6570    -1.0960     1.4870 cl         1 C18      -0.198000
     23 C2B         -4.3650     0.0670     0.5230 ca         1 C18      -0.081000
     24 H3           6.0300    -1.2160     0.3870 ha         1 C18       0.215000
     25 H4C1         4.5490     1.8870     1.7020 h1         1 C18       0.045200
     26 H4C2         6.0500     1.0040     1.4400 h1         1 C18       0.045200
     27 H4C          4.5640     2.4430    -0.6750 hn         1 C18       0.412000
     28 H4N1         5.5720     4.0750     0.7860 h1         1 C18       0.033033
     29 H4N2         7.1250     3.2240     0.6050 h1         1 C18       0.033033
     30 H4N3         6.3750     4.0160    -0.7990 h1         1 C18       0.033033
     31 H5           2.5700     2.2050     0.7870 ha         1 C18       0.112000
     32 H6           0.1590     2.1660     0.4340 ha         1 C18       0.123000
     33 H8           0.3520    -2.0210    -0.6100 ha         1 C18       0.155000
     34 H7B1        -2.1030     1.4880     0.8660 h1         1 C18       0.046200
     35 H7B2        -1.8600     1.9250    -0.8400 h1         1 C18       0.046200
     36 H2B         -3.9600    -0.0920     1.5190 ha         1 C18       0.130000
     37 H6B         -3.5150     1.3280    -2.5440 ha         1 C18       0.123000
     38 H5B         -5.8420     0.6090    -3.0450 ha         1 C18       0.122000
     39 H4B         -7.2310    -0.4600    -1.2670 ha         1 C18       0.132000
@<TRIPOS>BOND
     1     1     2 2   
     2     2     3 1   
     3     2    10 1   
     4     3     4 1   
     5     4     5 ar  
     6     4    11 ar  
     7     5     6 1   
     8     5    14 ar  
     9     6     8 1   
    10     6    10 2   
    11     7     8 1   
    12     7     9 1   
    13     7    27 1   
    14     8    25 1   
    15     8    26 1   
    16     9    28 1   
    17     9    29 1   
    18     9    30 1   
    19    10    24 1   
    20    11    12 ar  
    21    11    33 1   
    22    12    13 ar  
    23    12    15 1   
    24    13    14 ar  
    25    13    32 1   
    26    14    31 1   
    27    15    16 1   
    28    16    17 1   
    29    16    34 1   
    30    16    35 1   
    31    17    18 ar  
    32    17    23 ar  
    33    18    19 ar  
    34    18    37 1   
    35    19    20 ar  
    36    19    38 1   
    37    20    21 ar  
    38    20    39 1   
    39    21    22 1   
    40    21    23 ar  
    41    23    36 1   
@<TRIPOS>SUBSTRUCTURE
     1 C18         1 TEMP              0 ****  ****    0 ROOT
