@<TRIPOS>MOLECULE
C18
   39    41     1     0     0
SMALL
abcg2


@<TRIPOS>ATOM
      1 O2C          4.7510    -3.3200    -0.5970 o          1 C18      -0.481000
      2 C2           4.2490    -2.2560    -0.3320 c          1 C18       0.674300
      3 O1           2.9030    -2.1480    -0.4910 os         1 C18      -0.337200
      4 C9           2.2130    -1.0210    -0.2030 ca         1 C18       0.210100
      5 C10          2.8670     0.1220     0.2710 ca         1 C18      -0.187800
      6 C4           4.2990     0.0680     0.4300 cc         1 C18       0.043600
      7 N4C          5.1900     2.2360    -0.2060 n7         1 C18      -0.852400
      8 C4C          5.0580     1.2830     0.8830 c3         1 C18       0.188000
      9 C4N          5.9310     3.4160     0.1950 c3         1 C18       0.141100
     10 C3           4.9450    -1.0810     0.1380 cd         1 C18      -0.318200
     11 C8           0.8460    -1.0630    -0.3950 ca         1 C18      -0.178000
     12 C7           0.0850     0.0650    -0.1020 ca         1 C18       0.192100
     13 C6           0.7060     1.2210     0.3860 ca         1 C18      -0.229000
     14 C5           2.0740     1.2350     0.5650 ca         1 C18      -0.021000
     15 O7C         -1.2330    -0.0500    -0.3120 os         1 C18      -0.333100
     16 C7B         -2.0710     1.0750    -0.0630 c3         1 C18       0.210900
     17 C1B         -3.4690     0.6670    -0.4160 ca         1 C18      -0.091300
     18 C6B         -3.8490     0.5380    -1.7490 ca         1 C18      -0.079000
     19 C5B         -5.1360     0.1390    -2.0720 ca         1 C18      -0.105000
     20 C4B         -6.0620    -0.1340    -1.0740 ca         1 C18      -0.089000
     21 C3B         -5.6740    -0.0020     0.2490 ca         1 C18       0.115000
     22 CL3         -6.8140    -0.3400     1.5110 cl         1 C18      -0.198000
     23 C2B         -4.3880     0.3930     0.5890 ca         1 C18      -0.081000
     24 H3           6.0170    -1.1670     0.2480 ha         1 C18       0.215000
     25 H4C1         4.5750     1.7060     1.7780 h1         1 C18       0.045200
     26 H4C2         6.0590     0.9770     1.1930 h1         1 C18       0.045200
     27 H4C          4.2730     2.5180    -0.5300 hn         1 C18       0.412000
     28 H4N1         5.5210     3.9260     1.0770 h1         1 C18       0.033033
     29 H4N2         6.9630     3.1440     0.4230 h1         1 C18       0.033033
     30 H4N3         5.9510     4.1290    -0.6280 h1         1 C18       0.033033
     31 H5           2.5280     2.1360     0.9540 ha         1 C18       0.112000
     32 H6           0.1410     2.1080     0.6340 ha         1 C18       0.123000
     33 H8           0.3720    -1.9630    -0.7660 ha         1 C18       0.155000
     34 H7B1        -2.0110     1.3710     0.9880 h1         1 C18       0.046200
     35 H7B2        -1.7520     1.9250    -0.6730 h1         1 C18       0.046200
     36 H2B         -4.1030     0.4880     1.6290 ha         1 C18       0.130000
     37 H6B         -3.1380     0.7530    -2.5370 ha         1 C18       0.123000
     38 H5B         -5.4300     0.0410    -3.1090 ha         1 C18       0.122000
     39 H4B         -7.0670    -0.4430    -1.3250 ha         1 C18       0.132000
@<TRIPOS>BOND
     1     1     2 2   
     2     2     3 1   
     3     2    10 1   
     4     3     4 1   
     5     4     5 ar  
     6     4    11 ar  
     7     5     6 1   
     8     5    14 ar  
     9     6     8 1   
    10     6    10 2   
    11     7     8 1   
    12     7     9 1   
    13     7    27 1   
    14     8    25 1   
    15     8    26 1   
    16     9    28 1   
    17     9    29 1   
    18     9    30 1   
    19    10    24 1   
    20    11    12 ar  
    21    11    33 1   
    22    12    13 ar  
    23    12    15 1   
    24    13    14 ar  
    25    13    32 1   
    26    14    31 1   
    27    15    16 1   
    28    16    17 1   
    29    16    34 1   
    30    16    35 1   
    31    17    18 ar  
    32    17    23 ar  
    33    18    19 ar  
    34    18    37 1   
    35    19    20 ar  
    36    19    38 1   
    37    20    21 ar  
    38    20    39 1   
    39    21    22 1   
    40    21    23 ar  
    41    23    36 1   
@<TRIPOS>SUBSTRUCTURE
     1 C18         1 TEMP              0 ****  ****    0 ROOT
