@<TRIPOS>MOLECULE
C19
   53    57     1     0     0
SMALL
bcc


@<TRIPOS>ATOM
      1 N1           5.7620     2.3980    -0.7750 nb         1 C19      -0.759000
      2 C2           4.6300     1.8320    -1.0630 ca         1 C19       0.506200
      3 C3           4.0890     0.7590    -0.3180 ca         1 C19      -0.332600
      4 C4           4.8700     0.3290     0.7770 ca         1 C19       0.480600
      5 N5           6.0480     0.9140     1.0750 nb         1 C19      -0.787000
      6 C6           6.4370     1.9070     0.3050 ca         1 C19       0.906900
      7 C8           2.8630     0.1450    -0.6220 ca         1 C19      -0.036000
      8 C9           2.3990    -0.9000     0.1400 ca         1 C19      -0.057800
      9 C10          3.1810    -1.3220     1.2430 ca         1 C19      -0.079000
     10 C11          4.3790    -0.7390     1.5590 ca         1 C19      -0.204300
     11 N15          7.5890     2.5390     0.5950 nv         1 C19      -0.953500
     12 C16          1.1180    -1.5730    -0.1630 cc         1 C19      -0.171400
     13 C17         -0.0700    -0.7450    -0.1320 c          1 C19       0.703700
     14 N18         -1.2680    -1.4070    -0.3750 n          1 C19      -0.266200
     15 C19         -1.3380    -2.7370    -0.6430 cc         1 C19       0.032600
     16 C20         -0.2270    -3.5040    -0.6870 cd         1 C19      -0.257000
     17 C21          1.0430    -2.9140    -0.4440 cd         1 C19       0.033800
     18 C22          2.2490    -3.8000    -0.5170 c3         1 C19      -0.062900
     19 O26         -0.0760     0.4610     0.0910 o          1 C19      -0.616500
     20 C27         -2.4790    -0.6440    -0.3570 ca         1 C19       0.054600
     21 C28         -3.0000    -0.1830    -1.5540 ca         1 C19      -0.159000
     22 C29         -4.1930     0.5450    -1.5430 ca         1 C19      -0.072000
     23 C30         -4.8200     0.8020    -0.3450 ca         1 C19      -0.135300
     24 C31         -4.2810     0.3230     0.8550 ca         1 C19       0.142600
     25 C32         -3.1010    -0.4080     0.8640 ca         1 C19      -0.161000
     26 C36         -6.1240     1.5060    -0.0440 c5         1 C19      -0.003700
     27 C37         -5.9790     1.7320     1.4780 c5         1 C19       0.188800
     28 N38         -5.0930     0.6580     1.9150 nu         1 C19      -0.725600
     29 C41         -7.2900     0.5550    -0.3360 c3         1 C19      -0.078600
     30 C45         -6.3070     2.8160    -0.7970 c3         1 C19      -0.078600
     31 H2           4.0860     2.2150    -1.9230 h4         1 C19       0.022100
     32 H8           2.2990     0.5000    -1.4780 ha         1 C19       0.140000
     33 H10          2.8130    -2.1330     1.8590 ha         1 C19       0.131000
     34 H11          4.9560    -1.0820     2.4080 ha         1 C19       0.149000
     35 HN15         8.2180     2.1280     1.2630 hn         1 C19       0.440300
     36 HN1A         7.9820     3.1720    -0.0790 hn         1 C19       0.440300
     37 H19         -2.3280    -3.1320    -0.8210 h4         1 C19       0.156000
     38 H20         -0.3140    -4.5570    -0.9120 ha         1 C19       0.149000
     39 H22          2.4000    -4.3190     0.4320 hc         1 C19       0.051700
     40 H22A         2.1130    -4.5640    -1.2820 hc         1 C19       0.051700
     41 H22B         3.1590    -3.2470    -0.7390 hc         1 C19       0.051700
     42 H28         -2.4850    -0.3830    -2.4840 ha         1 C19       0.142000
     43 H29         -4.6090     0.9060    -2.4760 ha         1 C19       0.136000
     44 H32         -2.6690    -0.7800     1.7850 ha         1 C19       0.148000
     45 H37         -5.5340     2.7160     1.6730 h1         1 C19       0.046200
     46 H37A        -6.9370     1.6920     1.9980 h1         1 C19       0.046200
     47 HN38        -4.6630     0.7590     2.8220 hn         1 C19       0.409800
     48 H41         -7.2010    -0.3720     0.2340 hc         1 C19       0.039367
     49 H41A        -8.2420     1.0210    -0.0700 hc         1 C19       0.039367
     50 H41B        -7.3250     0.2970    -1.3950 hc         1 C19       0.039367
     51 H45         -6.4080     2.6460    -1.8700 hc         1 C19       0.039367
     52 H45A        -7.2110     3.3290    -0.4620 hc         1 C19       0.039367
     53 H45B        -5.4610     3.4860    -0.6400 hc         1 C19       0.039367
@<TRIPOS>BOND
     1     1     2 ar  
     2     1     6 ar  
     3     2     3 ar  
     4     2    31 1   
     5     3     4 ar  
     6     3     7 ar  
     7     4     5 ar  
     8     4    10 ar  
     9     5     6 ar  
    10     6    11 1   
    11     7     8 ar  
    12     7    32 1   
    13     8     9 ar  
    14     8    12 1   
    15     9    10 ar  
    16     9    33 1   
    17    10    34 1   
    18    11    35 1   
    19    11    36 1   
    20    12    13 1   
    21    12    17 2   
    22    13    14 1   
    23    13    19 2   
    24    14    15 1   
    25    14    20 1   
    26    15    16 2   
    27    15    37 1   
    28    16    17 1   
    29    16    38 1   
    30    17    18 1   
    31    18    39 1   
    32    18    40 1   
    33    18    41 1   
    34    20    21 ar  
    35    20    25 ar  
    36    21    22 ar  
    37    21    42 1   
    38    22    23 ar  
    39    22    43 1   
    40    23    24 ar  
    41    23    26 1   
    42    24    25 ar  
    43    24    28 1   
    44    25    44 1   
    45    26    27 1   
    46    26    29 1   
    47    26    30 1   
    48    27    28 1   
    49    27    45 1   
    50    27    46 1   
    51    28    47 1   
    52    29    48 1   
    53    29    49 1   
    54    29    50 1   
    55    30    51 1   
    56    30    52 1   
    57    30    53 1   
@<TRIPOS>SUBSTRUCTURE
     1 C19         1 TEMP              0 ****  ****    0 ROOT
