@<TRIPOS>MOLECULE
C19
   53    57     1     0     0
SMALL
No Charge or Current Charge


@<TRIPOS>ATOM
      1 N1           6.3620     1.9410    -0.5160 nb         1 C19      -0.233000
      2 C2           5.1820     1.4520    -0.9440 ca         1 C19       0.177900
      3 C3           4.4170     0.5770    -0.1490 ca         1 C19      -0.202000
      4 C4           4.9240     0.2210     1.1220 ca         1 C19       0.087000
      5 N5           6.1080     0.7160     1.5420 nb         1 C19      -0.261000
      6 C6           6.7530     1.5430     0.7040 ca         1 C19       0.380900
      7 C8           3.1850     0.0690    -0.6020 ca         1 C19      -0.018000
      8 C9           2.4460    -0.8070     0.2120 ca         1 C19      -0.057800
      9 C10          2.9420    -1.1620     1.4800 ca         1 C19      -0.061000
     10 C11          4.1730    -0.6520     1.9290 ca         1 C19      -0.121000
     11 N15          7.9410     2.0270     1.1420 nv         1 C19      -1.063900
     12 C16          1.1650    -1.3400    -0.2530 cc         1 C19      -0.171400
     13 C17         -0.0860    -0.5690    -0.0550 c          1 C19       0.561200
     14 N18         -1.2740    -1.1830    -0.5270 n          1 C19      -0.199200
     15 C19         -1.2050    -2.4180    -1.1790 cc         1 C19      -0.017400
     16 C20         -0.0230    -3.0980    -1.3750 cd         1 C19      -0.307000
     17 C21          1.2230    -2.5660    -0.8980 cd         1 C19       0.033800
     18 C22          2.5030    -3.3430    -1.1170 c3         1 C19      -0.062900
     19 O26         -0.0790     0.5430     0.4640 o          1 C19      -0.541000
     20 C27         -2.5480    -0.4920    -0.4760 ca         1 C19       0.054600
     21 C28         -3.4850    -0.6070    -1.5380 ca         1 C19      -0.141000
     22 C29         -4.7650    -0.0240    -1.4480 ca         1 C19      -0.054000
     23 C30         -5.1210     0.6460    -0.2680 ca         1 C19      -0.135300
     24 C31         -4.2430     0.7090     0.7850 ca         1 C19       0.281000
     25 C32         -2.9650     0.1460     0.7170 ca         1 C19      -0.143000
     26 C36         -6.4200     1.3460     0.0520 c5         1 C19      -0.003700
     27 C37         -5.9650     2.1500     1.3500 c5         1 C19       0.188800
     28 N38         -4.7900     1.3690     1.8690 nu         1 C19      -0.919200
     29 C41         -7.5470     0.3260     0.3540 c3         1 C19      -0.078600
     30 C45         -6.8900     2.2840    -1.0880 c3         1 C19      -0.078600
     31 H2           4.8500     1.7660    -1.9330 h4         1 C19       0.022100
     32 H8           2.8030     0.3480    -1.5820 ha         1 C19       0.122000
     33 H10          2.3730    -1.8360     2.1160 ha         1 C19       0.113000
     34 H11          4.5460    -0.9360     2.9100 ha         1 C19       0.131000
     35 HN15         8.3730     1.5850     1.9510 hn         1 C19       0.495500
     36 HN1A         8.5680     2.4670     0.4720 hn         1 C19       0.495500
     37 H19         -2.1750    -2.7990    -1.4800 h4         1 C19       0.206000
     38 H20         -0.0430    -4.0580    -1.8830 ha         1 C19       0.199000
     39 H22          2.9640    -3.6220    -0.1630 hc         1 C19       0.051700
     40 H22A         2.3250    -4.2690    -1.6770 hc         1 C19       0.051700
     41 H22B         3.2310    -2.7530    -1.6860 hc         1 C19       0.051700
     42 H28         -3.2140    -1.1150    -2.4600 ha         1 C19       0.124000
     43 H29         -5.4630    -0.0970    -2.2790 ha         1 C19       0.118000
     44 H32         -2.3190     0.1870     1.5880 ha         1 C19       0.130000
     45 H37         -5.6530     3.1670     1.0690 h1         1 C19       0.046200
     46 H37A        -6.7740     2.2530     2.0870 h1         1 C19       0.046200
     47 HN38        -4.1230     1.7810     2.5270 hn         1 C19       0.465000
     48 H41         -7.2550    -0.3580     1.1600 hc         1 C19       0.039367
     49 H41A        -8.4690     0.8320     0.6660 hc         1 C19       0.039367
     50 H41B        -7.7800    -0.2830    -0.5280 hc         1 C19       0.039367
     51 H45         -7.1580     1.7200    -1.9890 hc         1 C19       0.039367
     52 H45A        -7.7690     2.8660    -0.7860 hc         1 C19       0.039367
     53 H45B        -6.1010     2.9940    -1.3650 hc         1 C19       0.039367
@<TRIPOS>BOND
     1     1     2 ar  
     2     1     6 ar  
     3     2     3 ar  
     4     2    31 1   
     5     3     4 ar  
     6     3     7 ar  
     7     4     5 ar  
     8     4    10 ar  
     9     5     6 ar  
    10     6    11 1   
    11     7     8 ar  
    12     7    32 1   
    13     8     9 ar  
    14     8    12 1   
    15     9    10 ar  
    16     9    33 1   
    17    10    34 1   
    18    11    35 1   
    19    11    36 1   
    20    12    13 1   
    21    12    17 2   
    22    13    14 1   
    23    13    19 2   
    24    14    15 1   
    25    14    20 1   
    26    15    16 2   
    27    15    37 1   
    28    16    17 1   
    29    16    38 1   
    30    17    18 1   
    31    18    39 1   
    32    18    40 1   
    33    18    41 1   
    34    20    21 ar  
    35    20    25 ar  
    36    21    22 ar  
    37    21    42 1   
    38    22    23 ar  
    39    22    43 1   
    40    23    24 ar  
    41    23    26 1   
    42    24    25 ar  
    43    24    28 1   
    44    25    44 1   
    45    26    27 1   
    46    26    29 1   
    47    26    30 1   
    48    27    28 1   
    49    27    45 1   
    50    27    46 1   
    51    28    47 1   
    52    29    48 1   
    53    29    49 1   
    54    29    50 1   
    55    30    51 1   
    56    30    52 1   
    57    30    53 1   
@<TRIPOS>SUBSTRUCTURE
     1 C19         1 TEMP              0 ****  ****    0 ROOT
