@<TRIPOS>MOLECULE
C1A
   46    46     1     0     0
SMALL
abcg2


@<TRIPOS>ATOM
      1 C1          -1.2280    -1.3250     2.2830 c3         1 C1A      -0.051800
      2 C2          -0.6060    -0.6530     1.0940 ca         1 C1A      -0.059800
      3 C3           0.6220    -0.0110     1.2120 ca         1 C1A      -0.097000
      4 C4           1.2390     0.6280     0.1410 ca         1 C1A      -0.074300
      5 C5           2.5740     1.2820     0.3440 c3         1 C1A       0.079900
      6 S1           3.8310     0.0360    -0.1080 ss         1 C1A      -0.183700
      7 C6           5.2960     0.9940     0.1640 c2         1 C1A       0.672600
      8 N1           5.1830     2.2290     0.4430 n2         1 C1A      -0.853100
      9 N2           6.5040     0.3350     0.1000 nu         1 C1A      -0.905400
     10 C7           6.7640    -0.9800    -0.2530 c2         1 C1A       0.817100
     11 N3           5.8670    -1.6770    -0.8270 n2         1 C1A      -0.855100
     12 N4           8.0530    -1.3440     0.0270 nv         1 C1A      -1.079200
     13 C8           0.6170     0.6240    -1.1120 ca         1 C1A      -0.059800
     14 C9           1.2400     1.2950    -2.3010 c3         1 C1A      -0.051800
     15 C10         -0.6110    -0.0170    -1.2290 ca         1 C1A      -0.097000
     16 C11         -1.2290    -0.6560    -0.1590 ca         1 C1A      -0.074300
     17 C12         -2.5660    -1.3060    -0.3600 c3         1 C1A       0.079900
     18 S2          -3.8180    -0.0610     0.1090 ss         1 C1A      -0.183700
     19 C13         -5.2870    -1.0100    -0.1730 c2         1 C1A       0.672600
     20 N5          -5.1790    -2.2380    -0.4830 n2         1 C1A      -0.853100
     21 N6          -6.4940    -0.3520    -0.0810 nu         1 C1A      -0.905400
     22 C14         -6.7500     0.9560     0.3000 c2         1 C1A       0.817100
     23 N7          -5.8400     1.6490     0.8570 n2         1 C1A      -0.855100
     24 N8          -8.0500     1.3160     0.0640 nv         1 C1A      -1.079200
     25 H51          2.6980     2.1630    -0.2830 h1         1 C1A       0.081450
     26 H52          2.7170     1.5830     1.3810 h1         1 C1A       0.081450
     27 HN1          6.0860     2.6670     0.6020 hn         1 C1A       0.375400
     28 HN2          7.3080     0.9140     0.2990 hn         1 C1A       0.485000
     29 HN3          6.1650    -2.6360    -0.9550 hn         1 C1A       0.391400
     30 HN41         8.4870    -0.9370     0.8420 hn         1 C1A       0.462500
     31 HN42         8.2630    -2.3230    -0.0770 hn         1 C1A       0.462500
     32 H91          2.2490     0.9220    -2.4910 hc         1 C1A       0.046200
     33 H92          0.6480     1.1280    -3.2000 hc         1 C1A       0.046200
     34 H93          1.3220     2.3740    -2.1560 hc         1 C1A       0.046200
     35 H10         -1.1050    -0.0270    -2.1950 ha         1 C1A       0.112500
     36 H121        -2.7140    -1.5970    -1.3990 h1         1 C1A       0.081450
     37 H122        -2.6880    -2.1920     0.2590 h1         1 C1A       0.081450
     38 HN5         -6.0840    -2.6700    -0.6460 hn         1 C1A       0.375400
     39 HN6         -7.2990    -0.9290    -0.2750 hn         1 C1A       0.485000
     40 HN7         -6.1410     2.6040     1.0130 hn         1 C1A       0.391400
     41 HN81        -8.5070     0.9180    -0.7430 hn         1 C1A       0.462500
     42 HN82        -8.2600     2.2930     0.1870 hn         1 C1A       0.462500
     43 H1          -2.2330    -0.9490     2.4790 hc         1 C1A       0.046200
     44 H20         -1.3160    -2.4040     2.1330 hc         1 C1A       0.046200
     45 H21         -0.6310    -1.1660     3.1800 hc         1 C1A       0.046200
     46 H31          1.1160    -0.0010     2.1780 ha         1 C1A       0.112500
@<TRIPOS>BOND
     1     1     2 1   
     2     1    43 1   
     3     1    44 1   
     4     1    45 1   
     5     2     3 ar  
     6     2    16 ar  
     7     3     4 ar  
     8     3    46 1   
     9     4     5 1   
    10     4    13 ar  
    11     5     6 1   
    12     5    25 1   
    13     5    26 1   
    14     6     7 1   
    15     7     8 2   
    16     7     9 1   
    17     8    27 1   
    18     9    10 1   
    19     9    28 1   
    20    10    11 2   
    21    10    12 1   
    22    11    29 1   
    23    12    30 1   
    24    12    31 1   
    25    13    14 1   
    26    13    15 ar  
    27    14    32 1   
    28    14    33 1   
    29    14    34 1   
    30    15    16 ar  
    31    15    35 1   
    32    16    17 1   
    33    17    18 1   
    34    17    36 1   
    35    17    37 1   
    36    18    19 1   
    37    19    20 2   
    38    19    21 1   
    39    20    38 1   
    40    21    22 1   
    41    21    39 1   
    42    22    23 2   
    43    22    24 1   
    44    23    40 1   
    45    24    41 1   
    46    24    42 1   
@<TRIPOS>SUBSTRUCTURE
     1 C1A         1 TEMP              0 ****  ****    0 ROOT
