@<TRIPOS>MOLECULE
C1A
   46    46     1     0     0
SMALL
No Charge or Current Charge


@<TRIPOS>ATOM
      1 C1          -1.2130    -1.2020     2.4040 c3         1 C1A      -0.051800
      2 C2          -0.5970    -0.5910     1.1480 ca         1 C1A      -0.059800
      3 C3           0.6870    -0.0190     1.2230 ca         1 C1A      -0.097000
      4 C4           1.2960     0.5610     0.0940 ca         1 C1A      -0.074300
      5 C5           2.6910     1.1630     0.2410 c3         1 C1A       0.079900
      6 S1           3.9880    -0.0760    -0.1950 ss         1 C1A      -0.183700
      7 C6           5.5010     0.8470     0.0490 c2         1 C1A       0.672600
      8 N1           5.5330     2.0500     0.4410 n2         1 C1A      -0.853100
      9 N2           6.7130     0.2920    -0.1630 nu         1 C1A      -0.905400
     10 C7           6.8830    -0.9250    -0.5810 c2         1 C1A       0.817100
     11 N3           7.5270    -1.0200    -1.6300 n2         1 C1A      -0.855100
     12 N4           7.2970    -1.5210     0.4920 nv         1 C1A      -1.079200
     13 C8           0.6060     0.5670    -1.1410 ca         1 C1A      -0.059800
     14 C9           1.2220     1.1790    -2.3960 c3         1 C1A      -0.051800
     15 C10         -0.6780    -0.0050    -1.2150 ca         1 C1A      -0.097000
     16 C11         -1.2870    -0.5850    -0.0860 ca         1 C1A      -0.074300
     17 C12         -2.6820    -1.1870    -0.2330 c3         1 C1A       0.079900
     18 S2          -3.9790     0.0520     0.2030 ss         1 C1A      -0.183700
     19 C13         -5.4920    -0.8710    -0.0410 c2         1 C1A       0.672600
     20 N5          -5.5230    -2.0730    -0.4330 n2         1 C1A      -0.853100
     21 N6          -6.7040    -0.3160     0.1710 nu         1 C1A      -0.905400
     22 C14         -6.8740     0.9000     0.5900 c2         1 C1A       0.817100
     23 N7          -7.5170     0.9960     1.6390 n2         1 C1A      -0.855100
     24 N8          -7.2880     1.4970    -0.4830 nv         1 C1A      -1.079200
     25 H51          2.8030     2.0450    -0.4010 h1         1 C1A       0.081450
     26 H52          2.8500     1.4870     1.2770 h1         1 C1A       0.081450
     27 HN1          6.5180     2.3110     0.5570 hn         1 C1A       0.375400
     28 HN2          7.2870     0.8690    -0.7530 hn         1 C1A       0.485000
     29 HN3          8.0500    -1.8980    -1.5410 hn         1 C1A       0.391400
     30 HN41         7.2790    -0.8270     1.2240 hn         1 C1A       0.462500
     31 HN42         6.7290    -2.3260     0.7160 hn         1 C1A       0.462500
     32 H91          2.2050     0.7430    -2.6100 hc         1 C1A       0.046200
     33 H92          0.5960     1.0110    -3.2810 hc         1 C1A       0.046200
     34 H93          1.3470     2.2620    -2.2860 hc         1 C1A       0.046200
     35 H10         -1.2130     0.0020    -2.1630 ha         1 C1A       0.112500
     36 H121        -2.8410    -1.5110    -1.2700 h1         1 C1A       0.081450
     37 H122        -2.7930    -2.0690     0.4090 h1         1 C1A       0.081450
     38 HN5         -6.5090    -2.3350    -0.5500 hn         1 C1A       0.375400
     39 HN6         -7.2780    -0.8930     0.7610 hn         1 C1A       0.485000
     40 HN7         -8.0400     1.8730     1.5510 hn         1 C1A       0.391400
     41 HN81        -7.2700     0.8040    -1.2150 hn         1 C1A       0.462500
     42 HN82        -6.7200     2.3020    -0.7070 hn         1 C1A       0.462500
     43 H1          -2.1960    -0.7670     2.6180 hc         1 C1A       0.046200
     44 H20         -1.3380    -2.2860     2.2940 hc         1 C1A       0.046200
     45 H21         -0.5860    -1.0350     3.2880 hc         1 C1A       0.046200
     46 H31          1.2220    -0.0260     2.1710 ha         1 C1A       0.112500
@<TRIPOS>BOND
     1     1     2 1   
     2     1    43 1   
     3     1    44 1   
     4     1    45 1   
     5     2     3 ar  
     6     2    16 ar  
     7     3     4 ar  
     8     3    46 1   
     9     4     5 1   
    10     4    13 ar  
    11     5     6 1   
    12     5    25 1   
    13     5    26 1   
    14     6     7 1   
    15     7     8 2   
    16     7     9 1   
    17     8    27 1   
    18     9    10 1   
    19     9    28 1   
    20    10    11 2   
    21    10    12 1   
    22    11    29 1   
    23    12    30 1   
    24    12    31 1   
    25    13    14 1   
    26    13    15 ar  
    27    14    32 1   
    28    14    33 1   
    29    14    34 1   
    30    15    16 ar  
    31    15    35 1   
    32    16    17 1   
    33    17    18 1   
    34    17    36 1   
    35    17    37 1   
    36    18    19 1   
    37    19    20 2   
    38    19    21 1   
    39    20    38 1   
    40    21    22 1   
    41    21    39 1   
    42    22    23 2   
    43    22    24 1   
    44    23    40 1   
    45    24    41 1   
    46    24    42 1   
@<TRIPOS>SUBSTRUCTURE
     1 C1A         1 TEMP              0 ****  ****    0 ROOT
