@<TRIPOS>MOLECULE
C1B
   61    64     1     0     0
SMALL
bcc


@<TRIPOS>ATOM
      1 C1          -7.8470     5.6070    13.1190 ca         1 C1B      -0.179900
      2 C2          -7.8520     4.2140    13.3330 ca         1 C1B      -0.153000
      3 C3          -8.8740     3.4070    12.8710 ca         1 C1B      -0.097000
      4 C4          -9.9250     4.0060    12.1780 ca         1 C1B       0.090400
      5 C5          -9.9120     5.3980    11.9770 ca         1 C1B      -0.103200
      6 C6          -8.8890     6.2140    12.4290 ca         1 C1B      -0.058000
      7 C7          -6.7220     6.4550    13.6020 ce         1 C1B       0.670800
      8 N1          -6.4470     7.5310    12.9700 n2         1 C1B      -0.833100
      9 N2          -6.0380     5.9620    14.6780 nv         1 C1B      -0.970800
     10 N3         -11.0460     3.4570    11.6140 nc         1 C1B      -0.595100
     11 N4         -11.0600     5.6530    11.2810 na         1 C1B      -0.245300
     12 C8         -11.6960     4.4630    11.0850 cd         1 C1B       0.545400
     13 C9         -12.9840     4.4210    10.3900 ca         1 C1B      -0.204900
     14 C10        -13.9240     5.4120    10.6800 ca         1 C1B      -0.060000
     15 C11        -15.1480     5.4750    10.0320 ca         1 C1B      -0.001300
     16 CVX        -16.1310     6.5940    10.2840 c3         1 C1B      -0.134400
     17 CWX        -17.5850     6.0540    10.2680 c          1 C1B       0.926600
     18 OXX        -17.8300     5.1460    11.0990 o          1 C1B      -0.856800
     19 OYX        -18.3890     6.5350     9.4520 o          1 C1B      -0.856800
     20 C6X        -15.8800     7.7450     9.3090 c3         1 C1B      -0.176400
     21 C7X        -14.4950     8.4020     9.4600 c          1 C1B       0.911600
     22 O8X        -14.1300     8.6820    10.6240 o          1 C1B      -0.874800
     23 O9X        -13.8570     8.6360     8.4130 o          1 C1B      -0.874800
     24 C12        -15.4100     4.4920     9.0890 ca         1 C1B      -0.050000
     25 C13        -14.5250     3.4510     8.8040 cp         1 C1B      -0.158000
     26 C14        -13.2760     3.4330     9.4400 ca         1 C1B       0.175100
     27 O6         -12.3560     2.4820     9.1950 oh         1 C1B      -0.514100
     28 C1B        -15.0310     2.3740     7.9200 cp         1 C1B      -0.007000
     29 C2B        -14.3630     1.8650     6.8080 ca         1 C1B       0.114100
     30 C3B        -14.9920     0.9480     5.9720 ca         1 C1B      -0.222000
     31 C4B        -16.2950     0.5480     6.2260 ca         1 C1B      -0.113000
     32 C5B        -16.9830     1.0230     7.3390 ca         1 C1B      -0.137300
     33 C51        -18.4260     0.6260     7.5900 c3         1 C1B       0.164300
     34 N52        -18.9640     1.0810     8.8470 ns         1 C1B      -0.599900
     35 C53        -19.2120     2.4100     9.0670 c          1 C1B       0.743100
     36 O54        -19.3110     3.2150     8.1480 o          1 C1B      -0.600100
     37 N55        -19.3790     2.7630    10.3760 nt         1 C1B      -0.648000
     38 C6B        -16.3190     1.9040     8.1740 ca         1 C1B      -0.072000
     39 O2B        -13.1010     2.3110     6.5790 oh         1 C1B      -0.501100
     40 H2          -7.0220     3.7500    13.8490 ha         1 C1B       0.112000
     41 H3          -8.8540     2.3370    13.0340 ha         1 C1B       0.131000
     42 H6          -8.8930     7.2830    12.2620 ha         1 C1B       0.157000
     43 HN1         -5.6890     8.0380    13.4190 hn         1 C1B       0.349400
     44 HN21        -5.3640     6.5700    15.1140 hn         1 C1B       0.395300
     45 HN22        -6.5310     5.3750    15.3320 hn         1 C1B       0.395300
     46 HN4        -11.3600     6.5480    10.9260 hn         1 C1B       0.345700
     47 H1         -13.6940     6.1610    11.4260 ha         1 C1B       0.157000
     48 H31        -15.9440     6.9690    11.2960 hc         1 C1B       0.060700
     49 H421       -16.6370     8.5180     9.4820 hc         1 C1B       0.033700
     50 H422       -16.0240     7.3980     8.2840 hc         1 C1B       0.033700
     51 H4         -16.3500     4.5130     8.5490 ha         1 C1B       0.160000
     52 H7         -12.4060     2.2170     8.2610 ho         1 C1B       0.427000
     53 H3B        -14.4690     0.5620     5.1040 ha         1 C1B       0.111000
     54 H4B        -16.7730    -0.1470     5.5450 ha         1 C1B       0.109000
     55 H511       -18.5220    -0.4600     7.5620 h1         1 C1B       0.046200
     56 H512       -19.0460     1.0040     6.7740 h1         1 C1B       0.046200
     57 H52        -18.7270     0.5150     9.6460 hn         1 C1B       0.280500
     58 H551       -19.0870     3.7160    10.6060 hn         1 C1B       0.319000
     59 H552       -19.0860     2.0990    11.0760 hn         1 C1B       0.319000
     60 H6B        -16.7940     2.2570     9.0780 ha         1 C1B       0.157000
     61 H2B        -12.6990     1.8530     5.8300 ho         1 C1B       0.413000
@<TRIPOS>BOND
     1     1     2 ar  
     2     1     6 ar  
     3     1     7 1   
     4     2     3 ar  
     5     2    40 1   
     6     3     4 ar  
     7     3    41 1   
     8     4     5 ar  
     9     4    10 1   
    10     5     6 ar  
    11     5    11 1   
    12     6    42 1   
    13     7     8 2   
    14     7     9 1   
    15     8    43 1   
    16     9    44 1   
    17     9    45 1   
    18    10    12 2   
    19    11    12 1   
    20    11    46 1   
    21    12    13 1   
    22    13    14 ar  
    23    13    26 ar  
    24    14    15 ar  
    25    14    47 1   
    26    15    16 1   
    27    15    24 ar  
    28    16    17 1   
    29    16    20 1   
    30    16    48 1   
    31    17    18 1   
    32    17    19 1   
    33    20    21 1   
    34    20    49 1   
    35    20    50 1   
    36    21    22 1   
    37    21    23 1   
    38    24    25 ar  
    39    24    51 1   
    40    25    26 ar  
    41    25    28 1   
    42    26    27 1   
    43    27    52 1   
    44    28    29 ar  
    45    28    38 ar  
    46    29    30 ar  
    47    29    39 1   
    48    30    31 ar  
    49    30    53 1   
    50    31    32 ar  
    51    31    54 1   
    52    32    33 1   
    53    32    38 ar  
    54    33    34 1   
    55    33    55 1   
    56    33    56 1   
    57    34    35 1   
    58    34    57 1   
    59    35    36 2   
    60    35    37 1   
    61    37    58 1   
    62    37    59 1   
    63    38    60 1   
    64    39    61 1   
@<TRIPOS>SUBSTRUCTURE
     1 C1B         1 TEMP              0 ****  ****    0 ROOT
