@<TRIPOS>MOLECULE
C1B
   61    64     1     0     0
SMALL
No Charge or Current Charge


@<TRIPOS>ATOM
      1 C1          -7.2300     5.3940    13.0030 ca         1 C1B      -0.179900
      2 C2          -7.3150     3.9720    13.0730 ca         1 C1B      -0.135000
      3 C3          -8.4650     3.2890    12.6210 ca         1 C1B      -0.079000
      4 C4          -9.5250     4.0330    12.0890 ca         1 C1B       0.090400
      5 C5          -9.4430     5.3890    12.0080 ca         1 C1B      -0.103200
      6 C6          -8.3220     6.1090    12.4440 ca         1 C1B      -0.040000
      7 C7          -6.0070     6.1360    13.4560 ce         1 C1B       0.670800
      8 N1          -5.7900     7.3580    13.1900 n2         1 C1B      -0.833100
      9 N2          -5.1370     5.4970    14.2660 nv         1 C1B      -1.081200
     10 N3         -10.7290     3.5650    11.5950 nc         1 C1B      -0.595100
     11 N4         -10.6030     5.8580    11.4550 na         1 C1B      -0.295600
     12 C8         -11.3490     4.6990    11.2000 cd         1 C1B       0.545400
     13 C9         -12.7240     4.7230    10.6580 ca         1 C1B      -0.204900
     14 C10        -13.6070     5.7260    11.1170 ca         1 C1B      -0.042000
     15 C11        -14.9390     5.7860    10.6710 ca         1 C1B      -0.001300
     16 CVX        -15.8740     6.8840    11.2010 c3         1 C1B      -0.134400
     17 CWX        -16.9340     6.2900    12.1630 c          1 C1B       0.716000
     18 OXX        -16.8790     6.6040    13.3440 o          1 C1B      -0.751500
     19 OYX        -17.7700     5.5160    11.7190 o          1 C1B      -0.751500
     20 C6X        -16.5190     7.7580    10.0750 c3         1 C1B      -0.176400
     21 C7X        -15.4630     8.6350     9.3760 c          1 C1B       0.701000
     22 O8X        -15.1870     9.7150     9.8750 o          1 C1B      -0.769500
     23 O9X        -14.9240     8.2050     8.3680 o          1 C1B      -0.769500
     24 C12        -15.3950     4.8130     9.7630 ca         1 C1B      -0.032000
     25 C13        -14.5460     3.7890     9.2780 cp         1 C1B      -0.158000
     26 C14        -13.2020     3.7590     9.7390 ca         1 C1B       0.175100
     27 O6         -12.3600     2.8150     9.2420 oh         1 C1B      -0.553100
     28 C1B        -15.1220     2.7470     8.3550 cp         1 C1B      -0.007000
     29 C2B        -14.5170     2.3590     7.1230 ca         1 C1B       0.114100
     30 C3B        -15.1200     1.3930     6.3020 ca         1 C1B      -0.204000
     31 C4B        -16.3300     0.7910     6.6800 ca         1 C1B      -0.095000
     32 C5B        -16.9490     1.1540     7.8880 ca         1 C1B      -0.137300
     33 C51        -18.2610     0.5040     8.3010 c3         1 C1B       0.164300
     34 N52        -19.4090     1.2580     7.8000 ns         1 C1B      -0.532900
     35 C53        -20.1330     0.9220     6.6930 c          1 C1B       0.609100
     36 O54        -19.9240    -0.0540     6.0000 o          1 C1B      -0.600100
     37 N55        -21.1240     1.7840     6.4290 nt         1 C1B      -0.581000
     38 C6B        -16.3460     2.1250     8.7100 ca         1 C1B      -0.054000
     39 O2B        -13.3450     2.9130     6.6950 oh         1 C1B      -0.540100
     40 H2          -6.4900     3.3840    13.4670 ha         1 C1B       0.094000
     41 H3          -8.5260     2.2050    12.6790 ha         1 C1B       0.113000
     42 H6          -8.3010     7.1930    12.3570 ha         1 C1B       0.139000
     43 HN1         -4.8220     7.5710    13.4510 hn         1 C1B       0.349400
     44 HN21        -4.6070     6.0880    14.8950 hn         1 C1B       0.450500
     45 HN22        -5.4820     4.6330    14.6660 hn         1 C1B       0.450500
     46 HN4        -10.8700     6.8090    11.2410 hn         1 C1B       0.396000
     47 H1         -13.2600     6.4590    11.8420 ha         1 C1B       0.139000
     48 H31        -15.2730     7.5690    11.8120 hc         1 C1B       0.060700
     49 H421       -17.2350     8.4050    10.5970 hc         1 C1B       0.033700
     50 H422       -16.9950     7.0780     9.3610 hc         1 C1B       0.033700
     51 H4         -16.4280     4.8450     9.4260 ha         1 C1B       0.142000
     52 H7         -12.7080     2.6020     8.3430 ho         1 C1B       0.466000
     53 H3B        -14.6550     1.1010     5.3630 ha         1 C1B       0.093000
     54 H4B        -16.7880     0.0460     6.0340 ha         1 C1B       0.091000
     55 H511       -18.3230     0.4620     9.3960 h1         1 C1B       0.046200
     56 H512       -18.3010    -0.5280     7.9290 h1         1 C1B       0.046200
     57 H52        -19.6770     2.1000     8.2930 hn         1 C1B       0.280500
     58 H551       -21.7160     1.6200     5.6290 hn         1 C1B       0.319000
     59 H552       -21.2750     2.5860     7.0200 hn         1 C1B       0.319000
     60 H6B        -16.8290     2.3990     9.6450 ha         1 C1B       0.139000
     61 H2B        -13.1940     2.6320     5.7660 ho         1 C1B       0.452000
@<TRIPOS>BOND
     1     1     2 ar  
     2     1     6 ar  
     3     1     7 1   
     4     2     3 ar  
     5     2    40 1   
     6     3     4 ar  
     7     3    41 1   
     8     4     5 ar  
     9     4    10 1   
    10     5     6 ar  
    11     5    11 1   
    12     6    42 1   
    13     7     8 2   
    14     7     9 1   
    15     8    43 1   
    16     9    44 1   
    17     9    45 1   
    18    10    12 2   
    19    11    12 1   
    20    11    46 1   
    21    12    13 1   
    22    13    14 ar  
    23    13    26 ar  
    24    14    15 ar  
    25    14    47 1   
    26    15    16 1   
    27    15    24 ar  
    28    16    17 1   
    29    16    20 1   
    30    16    48 1   
    31    17    18 1   
    32    17    19 1   
    33    20    21 1   
    34    20    49 1   
    35    20    50 1   
    36    21    22 1   
    37    21    23 1   
    38    24    25 ar  
    39    24    51 1   
    40    25    26 ar  
    41    25    28 1   
    42    26    27 1   
    43    27    52 1   
    44    28    29 ar  
    45    28    38 ar  
    46    29    30 ar  
    47    29    39 1   
    48    30    31 ar  
    49    30    53 1   
    50    31    32 ar  
    51    31    54 1   
    52    32    33 1   
    53    32    38 ar  
    54    33    34 1   
    55    33    55 1   
    56    33    56 1   
    57    34    35 1   
    58    34    57 1   
    59    35    36 2   
    60    35    37 1   
    61    37    58 1   
    62    37    59 1   
    63    38    60 1   
    64    39    61 1   
@<TRIPOS>SUBSTRUCTURE
     1 C1B         1 TEMP              0 ****  ****    0 ROOT
