@<TRIPOS>MOLECULE
C1C
   38    41     1     0     0
SMALL
abcg2


@<TRIPOS>ATOM
      1 C1          -3.5660    -2.6180    -0.9490 ca         1 C1C      -0.143500
      2 C2          -3.8590    -1.7520     0.0680 ca         1 C1C      -0.116000
      3 C3          -2.9090    -0.7980     0.5040 ca         1 C1C      -0.038500
      4 C4          -1.6370    -0.7400    -0.1190 ca         1 C1C      -0.003000
      5 C5          -1.3720    -1.6430    -1.1770 ca         1 C1C      -0.051000
      6 C6          -2.3060    -2.5600    -1.5780 ca         1 C1C      -0.164000
      7 C7          -3.2020     0.1160     1.5430 ca         1 C1C      -0.172500
      8 C8          -2.2690     1.0300     1.9330 ca         1 C1C      -0.048500
      9 C9          -0.9780     1.0740     1.3520 ca         1 C1C      -0.107100
     10 C10         -0.6690     0.2060     0.3300 cp         1 C1C       0.033500
     11 C11          0.6710     0.1990    -0.3160 cp         1 C1C       0.033500
     12 C12          1.6340    -0.7470     0.1440 ca         1 C1C      -0.003000
     13 C13          2.9060    -0.8170    -0.4760 ca         1 C1C      -0.038500
     14 C14          3.2040     0.0830    -1.5250 ca         1 C1C      -0.172500
     15 C15          2.2770     0.9980    -1.9260 ca         1 C1C      -0.048500
     16 C16          0.9860     1.0540    -1.3470 ca         1 C1C      -0.107100
     17 C17          1.3640    -1.6360     1.2120 ca         1 C1C      -0.051000
     18 C18          2.2930    -2.5530     1.6250 ca         1 C1C      -0.164000
     19 C19          3.5540    -2.6240     0.9980 ca         1 C1C      -0.143500
     20 C20          3.8510    -1.7700    -0.0290 ca         1 C1C      -0.116000
     21 C21          0.0060     2.0790    -1.9020 c          1 C1C       0.719600
     22 O22          0.5140     3.1330    -2.3400 o          1 C1C      -0.721750
     23 O23         -1.1990     1.7790    -1.8950 o          1 C1C      -0.721750
     24 C24          0.0060     2.0990     1.8950 c          1 C1C       0.719600
     25 O25          1.2100     1.7900     1.8950 o          1 C1C      -0.721750
     26 O26         -0.4940     3.1630     2.3180 o          1 C1C      -0.721750
     27 H1          -4.2990    -3.3450    -1.2760 ha         1 C1C       0.071000
     28 H2          -4.8280    -1.7810     0.5520 ha         1 C1C       0.078000
     29 H5          -0.4130    -1.6050    -1.6780 ha         1 C1C       0.118000
     30 H6          -2.0820    -3.2410    -2.3890 ha         1 C1C       0.079000
     31 H7          -4.1760     0.0830     2.0160 ha         1 C1C       0.073000
     32 H8          -2.5070     1.7360     2.7180 ha         1 C1C       0.114000
     33 H14          4.1790     0.0410    -1.9970 ha         1 C1C       0.073000
     34 H15          2.5180     1.6940    -2.7190 ha         1 C1C       0.114000
     35 H17          0.4050    -1.5890     1.7120 ha         1 C1C       0.118000
     36 H18          2.0650    -3.2240     2.4430 ha         1 C1C       0.079000
     37 H19          4.2830    -3.3500     1.3340 ha         1 C1C       0.071000
     38 H20          4.8210    -1.8090    -0.5110 ha         1 C1C       0.078000
@<TRIPOS>BOND
     1     1     2 ar  
     2     1     6 ar  
     3     1    27 1   
     4     2     3 ar  
     5     2    28 1   
     6     3     4 ar  
     7     3     7 ar  
     8     4     5 ar  
     9     4    10 ar  
    10     5     6 ar  
    11     5    29 1   
    12     6    30 1   
    13     7     8 ar  
    14     7    31 1   
    15     8     9 ar  
    16     8    32 1   
    17     9    10 ar  
    18     9    24 1   
    19    10    11 1   
    20    11    12 ar  
    21    11    16 ar  
    22    12    13 ar  
    23    12    17 ar  
    24    13    14 ar  
    25    13    20 ar  
    26    14    15 ar  
    27    14    33 1   
    28    15    16 ar  
    29    15    34 1   
    30    16    21 1   
    31    17    18 ar  
    32    17    35 1   
    33    18    19 ar  
    34    18    36 1   
    35    19    20 ar  
    36    19    37 1   
    37    20    38 1   
    38    21    22 1   
    39    21    23 1   
    40    24    25 1   
    41    24    26 1   
@<TRIPOS>SUBSTRUCTURE
     1 C1C         1 TEMP              0 ****  ****    0 ROOT
