@<TRIPOS>MOLECULE
C1C
   38    41     1     0     0
SMALL
No Charge or Current Charge


@<TRIPOS>ATOM
      1 C1          -3.6040    -2.6940    -0.8360 ca         1 C1C      -0.143500
      2 C2          -3.9130    -1.7230     0.1290 ca         1 C1C      -0.116000
      3 C3          -2.9520    -0.7680     0.5100 ca         1 C1C      -0.038500
      4 C4          -1.6600    -0.7770    -0.0730 ca         1 C1C      -0.003000
      5 C5          -1.3680    -1.7580    -1.0520 ca         1 C1C      -0.051000
      6 C6          -2.3330    -2.7090    -1.4260 ca         1 C1C      -0.164000
      7 C7          -3.2890     0.1980     1.4720 ca         1 C1C      -0.172500
      8 C8          -2.3480     1.1580     1.8660 ca         1 C1C      -0.048500
      9 C9          -1.0580     1.1530     1.3060 ca         1 C1C      -0.107100
     10 C10         -0.6830     0.1900     0.3200 cp         1 C1C       0.033500
     11 C11          0.6850     0.1830    -0.3040 cp         1 C1C       0.033500
     12 C12          1.6570    -0.7840     0.1000 ca         1 C1C      -0.003000
     13 C13          2.9490    -0.7880    -0.4830 ca         1 C1C      -0.038500
     14 C14          3.2910     0.1650    -1.4560 ca         1 C1C      -0.172500
     15 C15          2.3550     1.1250    -1.8610 ca         1 C1C      -0.048500
     16 C16          1.0650     1.1330    -1.3010 ca         1 C1C      -0.107100
     17 C17          1.3610    -1.7530     1.0900 ca         1 C1C      -0.051000
     18 C18          2.3210    -2.7040     1.4750 ca         1 C1C      -0.164000
     19 C19          3.5920    -2.7020     0.8840 ca         1 C1C      -0.143500
     20 C20          3.9060    -1.7440    -0.0910 ca         1 C1C      -0.116000
     21 C21          0.0350     2.1410    -1.7600 c          1 C1C       0.719600
     22 O22          0.4070     3.2960    -1.9190 o          1 C1C      -0.721750
     23 O23         -1.0710     1.7490    -2.1000 o          1 C1C      -0.721750
     24 C24         -0.0230     2.1610     1.7540 c          1 C1C       0.719600
     25 O25          1.0810     1.7670     2.0990 o          1 C1C      -0.721750
     26 O26         -0.3880     3.3200     1.8990 o          1 C1C      -0.721750
     27 H1          -4.3500    -3.4290    -1.1270 ha         1 C1C       0.071000
     28 H2          -4.9030    -1.7140     0.5790 ha         1 C1C       0.078000
     29 H5          -0.3950    -1.7960    -1.5330 ha         1 C1C       0.118000
     30 H6          -2.0930    -3.4580    -2.1770 ha         1 C1C       0.079000
     31 H7          -4.2810     0.2070     1.9170 ha         1 C1C       0.073000
     32 H8          -2.6150     1.8980     2.6170 ha         1 C1C       0.114000
     33 H14          4.2830     0.1640    -1.9010 ha         1 C1C       0.073000
     34 H15          2.6260     1.8560    -2.6200 ha         1 C1C       0.114000
     35 H17          0.3870    -1.7800     1.5720 ha         1 C1C       0.118000
     36 H18          2.0770    -3.4430     2.2340 ha         1 C1C       0.079000
     37 H19          4.3340    -3.4380     1.1830 ha         1 C1C       0.071000
     38 H20          4.8950    -1.7450    -0.5420 ha         1 C1C       0.078000
@<TRIPOS>BOND
     1     1     2 ar  
     2     1     6 ar  
     3     1    27 1   
     4     2     3 ar  
     5     2    28 1   
     6     3     4 ar  
     7     3     7 ar  
     8     4     5 ar  
     9     4    10 ar  
    10     5     6 ar  
    11     5    29 1   
    12     6    30 1   
    13     7     8 ar  
    14     7    31 1   
    15     8     9 ar  
    16     8    32 1   
    17     9    10 ar  
    18     9    24 1   
    19    10    11 1   
    20    11    12 ar  
    21    11    16 ar  
    22    12    13 ar  
    23    12    17 ar  
    24    13    14 ar  
    25    13    20 ar  
    26    14    15 ar  
    27    14    33 1   
    28    15    16 ar  
    29    15    34 1   
    30    16    21 1   
    31    17    18 ar  
    32    17    35 1   
    33    18    19 ar  
    34    18    36 1   
    35    19    20 ar  
    36    19    37 1   
    37    20    38 1   
    38    21    22 1   
    39    21    23 1   
    40    24    25 1   
    41    24    26 1   
@<TRIPOS>SUBSTRUCTURE
     1 C1C         1 TEMP              0 ****  ****    0 ROOT
