@<TRIPOS>MOLECULE
C1D
   61    63     1     0     0
SMALL
abcg2


@<TRIPOS>ATOM
      1 C1           6.8170    -5.8380    -5.6490 ca         1 C1D       0.337900
      2 N2           5.6590    -5.8380    -5.0060 nb         1 C1D      -0.653000
      3 C3           5.6770    -5.9020    -3.6810 ca         1 C1D       0.271300
      4 C4           6.8440    -5.9520    -2.9350 ca         1 C1D      -0.117000
      5 C5           8.0530    -5.9520    -3.6180 ca         1 C1D      -0.077000
      6 C6           8.0440    -5.8960    -5.0010 ca         1 C1D      -0.147000
      7 C11          4.3130    -5.8660    -3.0350 c3         1 C1D       0.119700
      8 C12          3.6390    -4.5100    -3.1770 c3         1 C1D       0.188800
      9 F13          3.5230    -6.8230    -3.6050 f          1 C1D      -0.107500
     10 F14          4.4100    -6.2060    -1.7220 f          1 C1D      -0.107500
     11 N15          2.3480    -4.4550    -2.5600 nu         1 C1D      -0.889400
     12 C18          2.1440    -4.0090    -1.3010 c2         1 C1D       0.590200
     13 C19          0.7060    -4.0030    -0.8180 c6         1 C1D       0.378200
     14 N20          0.5310    -2.8090    -0.0510 nh         1 C1D      -0.707400
     15 C21          1.5270    -2.5540     0.8610 c2         1 C1D       0.218000
     16 C22          2.7750    -3.0050     0.6440 ce         1 C1D      -0.045400
     17 N23          3.1110    -3.6190    -0.5470 ne         1 C1D      -0.639300
     18 C24         -0.7380    -2.1150    -0.0840 c3         1 C1D       0.233800
     19 C25         -1.8360    -2.7890     0.7360 c3         1 C1D       0.129800
     20 N28         -3.0120    -1.9470     0.7470 n7         1 C1D      -0.865400
     21 C29         -4.1360    -2.5510     1.4380 c3         1 C1D       0.161800
     22 C30         -5.3210    -1.5930     1.5210 c6         1 C1D      -0.061700
     23 C33         -5.7410    -1.1090     0.1340 c6         1 C1D      -0.066400
     24 C34         -6.9550    -0.1950     0.2040 c6         1 C1D      -0.077400
     25 C2          -6.2230    -2.6500     3.6620 c3         1 C1D      -0.092100
     26 C35         -8.0920    -0.8760     0.9450 c6         1 C1D       0.399700
     27 C37         -6.5240    -2.2260     2.2320 c6         1 C1D       0.183500
     28 O42          0.4000    -5.1950    -0.1400 oh         1 C1D      -0.660000
     29 N6          -9.2080     0.0380     1.1020 n8         1 C1D      -0.988200
     30 CL43         1.1280    -1.6750     2.2980 cl         1 C1D      -0.184000
     31 N29         -7.6200    -1.2630     2.2630 n7         1 C1D      -0.855400
     32 H1           6.7710    -5.7890    -6.7310 h4         1 C1D       0.024100
     33 H4           6.8260    -5.9900    -1.8550 ha         1 C1D       0.144000
     34 H5           8.9860    -5.9940    -3.0710 ha         1 C1D       0.125000
     35 H6           8.9620    -5.8930    -5.5720 ha         1 C1D       0.127000
     36 H121         3.5470    -4.2890    -4.2420 h1         1 C1D       0.087700
     37 H122         4.2810    -3.7460    -2.7380 h1         1 C1D       0.087700
     38 H15          1.5630    -4.8170    -3.0740 hn         1 C1D       0.505000
     39 H119         0.0130    -3.9580    -1.6600 h2         1 C1D       0.094700
     40 H22          3.5580    -2.8710     1.3760 h4         1 C1D       0.225000
     41 H241        -0.5860    -1.0920     0.2620 h1         1 C1D       0.061700
     42 H242        -1.0560    -2.0430    -1.1270 h1         1 C1D       0.061700
     43 H251        -2.0960    -3.7460     0.2760 h1         1 C1D       0.043200
     44 H252        -1.4580    -3.0210     1.7430 h1         1 C1D       0.043200
     45 H28         -2.7830    -1.0730     1.2100 hn         1 C1D       0.407000
     46 H291        -4.4350    -3.4520     0.8890 h1         1 C1D       0.032200
     47 H292        -3.8530    -2.8840     2.4470 h1         1 C1D       0.032200
     48 H330        -5.0170    -0.7210     2.1190 hc         1 C1D       0.061700
     49 H33         -5.9760    -1.9810    -0.4890 hc         1 C1D       0.047200
     50 H331        -4.9100    -0.6000    -0.3550 hc         1 C1D       0.047200
     51 H34         -6.7040     0.7310     0.7290 hc         1 C1D       0.053200
     52 H341        -7.2850     0.0800    -0.8020 hc         1 C1D       0.053200
     53 H2C1        -7.1300    -2.9960     4.1610 hc         1 C1D       0.039033
     54 H2C2        -5.5070    -3.4690     3.7040 hc         1 C1D       0.039033
     55 H2C3        -5.8210    -1.8150     4.2390 hc         1 C1D       0.039033
     56 H335        -8.3760    -1.7750     0.3600 h2         1 C1D      -0.019300
     57 H337        -6.8030    -3.1300     1.6570 h1         1 C1D       0.014700
     58 H42          1.0380    -5.3320     0.5700 ho         1 C1D       0.459000
     59 H6N1       -10.0070    -0.4610     1.4760 hn         1 C1D       0.393500
     60 H6N2        -9.4990     0.3520     0.1840 hn         1 C1D       0.393500
     61 HN1         -8.3910    -1.6810     2.7730 hn         1 C1D       0.407000
@<TRIPOS>BOND
     1     1     2 ar  
     2     1     6 ar  
     3     1    32 1   
     4     2     3 ar  
     5     3     4 ar  
     6     3     7 1   
     7     4     5 ar  
     8     4    33 1   
     9     5     6 ar  
    10     5    34 1   
    11     6    35 1   
    12     7     8 1   
    13     7     9 1   
    14     7    10 1   
    15     8    11 1   
    16     8    36 1   
    17     8    37 1   
    18    11    12 1   
    19    11    38 1   
    20    12    13 1   
    21    12    17 2   
    22    13    14 1   
    23    13    28 1   
    24    13    39 1   
    25    14    15 1   
    26    14    18 1   
    27    15    16 2   
    28    15    30 1   
    29    16    17 1   
    30    16    40 1   
    31    18    19 1   
    32    18    41 1   
    33    18    42 1   
    34    19    20 1   
    35    19    43 1   
    36    19    44 1   
    37    20    21 1   
    38    20    45 1   
    39    21    22 1   
    40    21    46 1   
    41    21    47 1   
    42    22    23 1   
    43    22    27 1   
    44    22    48 1   
    45    23    24 1   
    46    23    49 1   
    47    23    50 1   
    48    24    26 1   
    49    24    51 1   
    50    24    52 1   
    51    25    27 1   
    52    25    53 1   
    53    25    54 1   
    54    25    55 1   
    55    26    29 1   
    56    26    31 1   
    57    26    56 1   
    58    27    31 1   
    59    27    57 1   
    60    28    58 1   
    61    29    59 1   
    62    29    60 1   
    63    31    61 1   
@<TRIPOS>SUBSTRUCTURE
     1 C1D         1 TEMP              0 ****  ****    0 ROOT
