@<TRIPOS>MOLECULE
C1D
   61    63     1     0     0
SMALL
No Charge or Current Charge


@<TRIPOS>ATOM
      1 C1           7.2610    -6.7870    -5.2150 ca         1 C1D       0.337900
      2 N2           6.0080    -6.3780    -4.9060 nb         1 C1D      -0.653000
      3 C3           5.6750    -6.2360    -3.5940 ca         1 C1D       0.271300
      4 C4           6.6060    -6.4880    -2.5600 ca         1 C1D      -0.117000
      5 C5           7.9050    -6.9110    -2.8850 ca         1 C1D      -0.077000
      6 C6           8.2340    -7.0640    -4.2410 ca         1 C1D      -0.147000
      7 C11          4.2450    -5.7540    -3.2850 c3         1 C1D       0.119700
      8 C12          4.1320    -4.2220    -3.5410 c3         1 C1D       0.188800
      9 F13          3.3310    -6.3950    -4.0580 f          1 C1D      -0.107500
     10 F14          3.8930    -6.0270    -2.0040 f          1 C1D      -0.107500
     11 N15          2.7910    -3.6580    -3.2210 nu         1 C1D      -0.889400
     12 C18          2.3960    -3.1680    -1.9770 c2         1 C1D       0.590200
     13 C19          0.8780    -2.7840    -1.7710 c6         1 C1D       0.378200
     14 N20          0.5540    -2.2830    -0.4160 nh         1 C1D      -0.707400
     15 C21          1.5920    -2.2140     0.5200 c2         1 C1D       0.218000
     16 C22          2.8730    -2.5710     0.2320 ce         1 C1D      -0.045400
     17 N23          3.2960    -3.0470    -1.0380 ne         1 C1D      -0.639300
     18 C24         -0.7770    -1.6340    -0.2290 c3         1 C1D       0.233800
     19 C25         -1.7870    -2.4400     0.6370 c3         1 C1D       0.129800
     20 N28         -3.0770    -1.7240     0.8060 n7         1 C1D      -0.865400
     21 C29         -4.1110    -2.4650     1.5570 c3         1 C1D       0.161800
     22 C30         -5.4530    -1.6780     1.6830 c6         1 C1D      -0.061700
     23 C33         -6.0430    -1.3320     0.2810 c6         1 C1D      -0.066400
     24 C34         -7.4050    -0.6130     0.4220 c6         1 C1D      -0.077400
     25 C2          -6.0690    -2.7430     3.9890 c3         1 C1D      -0.092100
     26 C35         -8.3570    -1.4530     1.3050 c6         1 C1D       0.399700
     27 C37         -6.5210    -2.4540     2.5320 c6         1 C1D       0.183500
     28 O42          0.0140    -3.9100    -1.9210 oh         1 C1D      -0.660000
     29 N6          -9.5470    -0.7480     1.6590 n8         1 C1D      -0.988200
     30 Cl43         1.2040    -1.6180     2.1140 cl         1 C1D      -0.184000
     31 N29         -7.8050    -1.7150     2.5980 n7         1 C1D      -0.855400
     32 H1           7.4900    -6.8940    -6.2740 h4         1 C1D       0.024100
     33 H4           6.3280    -6.3560    -1.5180 ha         1 C1D       0.144000
     34 H5           8.6380    -7.1130    -2.1060 ha         1 C1D       0.125000
     35 H6           9.2270    -7.3880    -4.5400 ha         1 C1D       0.127000
     36 H121         4.3540    -4.0480    -4.6040 h1         1 C1D       0.087700
     37 H122         4.9220    -3.7050    -2.9770 h1         1 C1D       0.087700
     38 H15          2.0160    -3.9410    -3.8220 hn         1 C1D       0.505000
     39 H119         0.6220    -2.0100    -2.5110 h2         1 C1D       0.094700
     40 H22          3.6650    -2.4980     0.9890 h4         1 C1D       0.225000
     41 H241        -0.6420    -0.6350     0.2070 h1         1 C1D       0.061700
     42 H242        -1.2490    -1.4790    -1.2090 h1         1 C1D       0.061700
     43 H251        -1.9570    -3.4100     0.1520 h1         1 C1D       0.043200
     44 H252        -1.3390    -2.6430     1.6190 h1         1 C1D       0.043200
     45 H28         -2.8980    -0.8410     1.2990 hn         1 C1D       0.407000
     46 H291        -4.3190    -3.4270     1.0680 h1         1 C1D       0.032200
     47 H292        -3.7310    -2.6840     2.5640 h1         1 C1D       0.032200
     48 H330        -5.2170    -0.7390     2.2020 hc         1 C1D       0.061700
     49 H33         -6.1740    -2.2520    -0.3060 hc         1 C1D       0.047200
     50 H331        -5.3520    -0.6930    -0.2860 hc         1 C1D       0.047200
     51 H34         -7.2510     0.3810     0.8640 hc         1 C1D       0.053200
     52 H341        -7.8500    -0.4560    -0.5690 hc         1 C1D       0.053200
     53 H2C1        -6.8750    -3.2090     4.5680 hc         1 C1D       0.039033
     54 H2C2        -5.2190    -3.4350     4.0190 hc         1 C1D       0.039033
     55 H2C3        -5.7740    -1.8230     4.5070 hc         1 C1D       0.039033
     56 H335        -8.6490    -2.4020     0.8340 h2         1 C1D      -0.019300
     57 H337        -6.7120    -3.4230     2.0470 h1         1 C1D       0.014700
     58 H42          0.0660    -4.3490    -1.0480 ho         1 C1D       0.459000
     59 H6N1       -10.1810    -0.7840     0.8560 hn         1 C1D       0.393500
     60 H6N2        -9.2950     0.2390     1.7400 hn         1 C1D       0.393500
     61 HN1         -8.4860    -2.3080     3.0740 hn         1 C1D       0.407000
@<TRIPOS>BOND
     1     1     2 ar  
     2     1     6 ar  
     3     1    32 1   
     4     2     3 ar  
     5     3     4 ar  
     6     3     7 1   
     7     4     5 ar  
     8     4    33 1   
     9     5     6 ar  
    10     5    34 1   
    11     6    35 1   
    12     7     8 1   
    13     7     9 1   
    14     7    10 1   
    15     8    11 1   
    16     8    36 1   
    17     8    37 1   
    18    11    12 1   
    19    11    38 1   
    20    12    13 1   
    21    12    17 2   
    22    13    14 1   
    23    13    28 1   
    24    13    39 1   
    25    14    15 1   
    26    14    18 1   
    27    15    16 2   
    28    15    30 1   
    29    16    17 1   
    30    16    40 1   
    31    18    19 1   
    32    18    41 1   
    33    18    42 1   
    34    19    20 1   
    35    19    43 1   
    36    19    44 1   
    37    20    21 1   
    38    20    45 1   
    39    21    22 1   
    40    21    46 1   
    41    21    47 1   
    42    22    23 1   
    43    22    27 1   
    44    22    48 1   
    45    23    24 1   
    46    23    49 1   
    47    23    50 1   
    48    24    26 1   
    49    24    51 1   
    50    24    52 1   
    51    25    27 1   
    52    25    53 1   
    53    25    54 1   
    54    25    55 1   
    55    26    29 1   
    56    26    31 1   
    57    26    56 1   
    58    27    31 1   
    59    27    57 1   
    60    28    58 1   
    61    29    59 1   
    62    29    60 1   
    63    31    61 1   
@<TRIPOS>SUBSTRUCTURE
     1 C1D         1 TEMP              0 ****  ****    0 ROOT
