@<TRIPOS>MOLECULE
C1E
   25    25     1     0     0
SMALL
bcc


@<TRIPOS>ATOM
      1 OA4          1.2830    -2.0100     0.2260 o          1 C1E      -0.558100
      2 CA6          1.5020    -0.8180     0.0590 c          1 C1E       0.586900
      3 CA5          0.4260     0.1540    -0.1340 ce         1 C1E      -0.367200
      4 CA4         -0.8630    -0.2330    -0.0460 cf         1 C1E       0.072000
      5 CA3         -2.0160     0.5890    -0.2140 cf         1 C1E      -0.196600
      6 CLA1        -1.7540     2.2840    -0.5900 cl         1 C1E      -0.223400
      7 CA2         -3.3030     0.1770    -0.0600 ce         1 C1E       0.125900
      8 OA3         -4.3440     0.9810    -0.1880 oh         1 C1E      -0.448100
      9 CA1         -3.7230    -1.2560     0.3170 c          1 C1E       0.937800
     10 OA2         -4.6060    -1.3040     1.1810 o          1 C1E      -0.771300
     11 OA1         -3.1550    -2.1790    -0.2830 o          1 C1E      -0.771300
     12 CB1          2.9140    -0.3300     0.0320 ca         1 C1E      -0.141600
     13 CB2          3.9390    -1.2640    -0.1410 ca         1 C1E      -0.088000
     14 CB3          5.2640    -0.8620    -0.1610 ca         1 C1E      -0.152000
     15 CB4          5.5880     0.4790     0.0090 ca         1 C1E      -0.125000
     16 CB5          4.5800     1.4140     0.1960 ca         1 C1E      -0.152000
     17 CB6          3.2510     1.0130     0.2010 ca         1 C1E      -0.088000
     18 HA5          0.6800     1.1780    -0.3690 ha         1 C1E       0.127000
     19 HA4         -1.0730    -1.2710     0.1730 ha         1 C1E       0.181000
     20 HOA3        -4.0710     1.8860    -0.4040 ho         1 C1E       0.403000
     21 HB2          3.6950    -2.3100    -0.2680 ha         1 C1E       0.145000
     22 HB3          6.0460    -1.5950    -0.3070 ha         1 C1E       0.121500
     23 HB4          6.6250     0.7920    -0.0010 ha         1 C1E       0.117000
     24 HB5          4.8250     2.4580     0.3380 ha         1 C1E       0.121500
     25 HB6          2.4870     1.7620     0.3580 ha         1 C1E       0.145000
@<TRIPOS>BOND
     1     1     2 2   
     2     2     3 1   
     3     2    12 1   
     4     3     4 2   
     5     3    18 1   
     6     4     5 1   
     7     4    19 1   
     8     5     6 1   
     9     5     7 2   
    10     7     8 1   
    11     7     9 1   
    12     8    20 1   
    13     9    10 1   
    14     9    11 1   
    15    12    13 ar  
    16    12    17 ar  
    17    13    14 ar  
    18    13    21 1   
    19    14    15 ar  
    20    14    22 1   
    21    15    16 ar  
    22    15    23 1   
    23    16    17 ar  
    24    16    24 1   
    25    17    25 1   
@<TRIPOS>SUBSTRUCTURE
     1 C1E         1 TEMP              0 ****  ****    0 ROOT
