@<TRIPOS>MOLECULE
C1E
   25    25     1     0     0
SMALL
No Charge or Current Charge


@<TRIPOS>ATOM
      1 OA4          1.3500    -2.1250    -0.0880 o          1 C1E      -0.558100
      2 CA6          1.5510    -0.9170    -0.1100 c          1 C1E       0.586900
      3 CA5          0.3880     0.0170    -0.2000 ce         1 C1E      -0.417200
      4 CA4         -0.9220    -0.3790    -0.1980 cf         1 C1E       0.022000
      5 CA3         -2.0800     0.5210    -0.3230 cf         1 C1E      -0.121000
      6 ClA1        -1.7740     2.1200    -0.9910 cl         1 C1E      -0.299000
      7 CA2         -3.3790     0.2060     0.0210 ce         1 C1E       0.125900
      8 OA3         -4.3280     1.1710    -0.2080 oh         1 C1E      -0.487100
      9 CA1         -3.9010    -1.1040     0.6550 c          1 C1E       0.727200
     10 OA2         -5.1080    -1.2190     0.8520 o          1 C1E      -0.666000
     11 OA1         -3.1180    -1.9910     0.9710 o          1 C1E      -0.666000
     12 CB1          2.9670    -0.3740    -0.0350 ca         1 C1E      -0.141600
     13 CB2          4.0540    -1.2370    -0.3130 ca         1 C1E      -0.070000
     14 CB3          5.3780    -0.7710    -0.2520 ca         1 C1E      -0.134000
     15 CB4          5.6410     0.5620     0.0960 ca         1 C1E      -0.107000
     16 CB5          4.5760     1.4270     0.3880 ca         1 C1E      -0.134000
     17 CB6          3.2490     0.9660     0.3270 ca         1 C1E      -0.070000
     18 HA5          0.6140     1.0730    -0.2900 ha         1 C1E       0.177000
     19 HA4         -1.1160    -1.4500    -0.1230 ha         1 C1E       0.231000
     20 HOA3        -3.8200     1.9180    -0.5930 ho         1 C1E       0.442000
     21 HB2          3.8740    -2.2750    -0.5880 ha         1 C1E       0.127000
     22 HB3          6.2020    -1.4460    -0.4740 ha         1 C1E       0.103500
     23 HB4          6.6660     0.9220     0.1450 ha         1 C1E       0.099000
     24 HB5          4.7780     2.4590     0.6690 ha         1 C1E       0.103500
     25 HB6          2.4550     1.6610     0.5860 ha         1 C1E       0.127000
@<TRIPOS>BOND
     1     1     2 2   
     2     2     3 1   
     3     2    12 1   
     4     3     4 2   
     5     3    18 1   
     6     4     5 1   
     7     4    19 1   
     8     5     6 1   
     9     5     7 2   
    10     7     8 1   
    11     7     9 1   
    12     8    20 1   
    13     9    10 1   
    14     9    11 1   
    15    12    13 ar  
    16    12    17 ar  
    17    13    14 ar  
    18    13    21 1   
    19    14    15 ar  
    20    14    22 1   
    21    15    16 ar  
    22    15    23 1   
    23    16    17 ar  
    24    16    24 1   
    25    17    25 1   
@<TRIPOS>SUBSTRUCTURE
     1 C1E         1 TEMP              0 ****  ****    0 ROOT
