@<TRIPOS>MOLECULE
C1F
   31    31     1     0     0
SMALL
No Charge or Current Charge


@<TRIPOS>ATOM
      1 C1           1.6960    -0.9790     0.3100 cc         1 C1F      -0.097300
      2 C2           0.3380    -1.1520    -0.0980 cc         1 C1F      -0.222600
      3 C3          -0.1700     0.1190    -0.2690 cd         1 C1F       0.186300
      4 C4          -1.5310     0.6290    -0.6900 c3         1 C1F      -0.094700
      5 C6           2.6860    -2.0760     0.6190 c3         1 C1F       0.006200
      6 O            0.7750     1.0790     0.0020 os         1 C1F      -0.275000
      7 C7           5.3650     2.1270    -0.1210 c3         1 C1F      -0.085100
      8 C9          -2.4890     0.8580     0.5080 c3         1 C1F      -0.195400
      9 C40          1.8970     0.3760     0.3530 cd         1 C1F       0.027300
     10 C12          4.0920     1.3340    -0.4770 c3         1 C1F      -0.080400
     11 C70         -3.8240     1.4530     0.0230 c          1 C1F       0.720000
     12 O1          -1.5600    -2.4160    -0.6560 o          1 C1F      -0.740000
     13 C13         -0.3940    -2.4380    -0.2980 c          1 C1F       0.734600
     14 O2           0.1880    -3.4930    -0.1020 o          1 C1F      -0.740000
     15 O3          -4.7180     0.6870    -0.3010 o          1 C1F      -0.760000
     16 O4          -3.9160     2.6690    -0.0630 o          1 C1F      -0.760000
     17 H4C1        -1.4040     1.5800    -1.2210 hc         1 C1F       0.069700
     18 H4C2        -1.9960    -0.0470    -1.4160 hc         1 C1F       0.069700
     19 H6C1         2.8290    -2.7320    -0.2480 hc         1 C1F       0.022367
     20 H6C2         3.6680    -1.6670     0.8820 hc         1 C1F       0.022367
     21 H6C3         2.3460    -2.6860     1.4640 hc         1 C1F       0.022367
     22 H7C1         5.1090     3.1340     0.2300 hc         1 C1F       0.016033
     23 H7C2         5.9320     1.6180     0.6670 hc         1 C1F       0.016033
     24 H7C3         6.0120     2.2240    -1.0010 hc         1 C1F       0.016033
     25 H9C1        -2.6470    -0.1290     0.9590 hc         1 C1F       0.020700
     26 H9C2        -1.9730     1.5660     1.1690 hc         1 C1F       0.020700
     27 H111         3.6620     0.6610     1.5400 hc         1 C1F       0.031200
     28 H112         2.8470     2.1490     1.0960 hc         1 C1F       0.031200
     29 H121         3.5660     1.8480    -1.2910 hc         1 C1F       0.046700
     30 H122         4.3810     0.3470    -0.8570 hc         1 C1F       0.046700
     31 C11          3.1330     1.1590     0.7190 c3         1 C1F      -0.075700
@<TRIPOS>BOND
     1     1     2 1   
     2     1     5 1   
     3     1     9 2   
     4     2     3 2   
     5     2    13 1   
     6     3     4 1   
     7     3     6 1   
     8     4     8 1   
     9     4    17 1   
    10     4    18 1   
    11     5    19 1   
    12     5    20 1   
    13     5    21 1   
    14     6     9 1   
    15     7    10 1   
    16     7    22 1   
    17     7    23 1   
    18     7    24 1   
    19     8    11 1   
    20     8    25 1   
    21     8    26 1   
    22     9    31 1   
    23    10    29 1   
    24    10    30 1   
    25    10    31 1   
    26    11    15 1   
    27    11    16 1   
    28    12    13 1   
    29    13    14 1   
    30    27    31 1   
    31    28    31 1   
@<TRIPOS>SUBSTRUCTURE
     1 C1F         1 TEMP              0 ****  ****    0 ROOT
