@<TRIPOS>MOLECULE
C1F
   31    31     1     0     0
SMALL
bcc


@<TRIPOS>ATOM
      1 C1           1.6860    -1.1880     0.3980 cc         1 C1F      -0.162600
      2 C2           0.3280    -1.3430    -0.0740 cc         1 C1F      -0.287900
      3 C3          -0.1200    -0.0850    -0.3530 cd         1 C1F       0.296000
      4 C4          -1.4190     0.4860    -0.7950 c3         1 C1F      -0.094700
      5 C6           2.6370    -2.2560     0.8240 c3         1 C1F       0.006200
      6 O            0.8530     0.8120    -0.0820 os         1 C1F      -0.363800
      7 C7           5.0580     2.3710    -0.1960 c3         1 C1F      -0.085100
      8 C9          -2.1780     1.1560     0.3510 c3         1 C1F      -0.195400
      9 C40          1.9460     0.1420     0.3710 cd         1 C1F       0.137000
     10 C12          3.8400     1.5350    -0.5590 c3         1 C1F      -0.080400
     11 C70         -3.5450     1.7550    -0.0250 c          1 C1F       0.930600
     12 O1          -1.5460    -2.5970    -0.7760 o          1 C1F      -0.845300
     13 C13         -0.4340    -2.6320    -0.2050 c          1 C1F       0.945200
     14 O2           0.1060    -3.6490     0.2770 o          1 C1F      -0.845300
     15 O3          -3.9270     1.6430    -1.2060 o          1 C1F      -0.865300
     16 O4          -4.1650     2.3120     0.9050 o          1 C1F      -0.865300
     17 H4C1        -1.2480     1.2120    -1.5950 hc         1 C1F       0.069700
     18 H4C2        -2.0120    -0.3200    -1.2150 hc         1 C1F       0.069700
     19 H6C1         2.7970    -2.9890     0.0330 hc         1 C1F       0.022367
     20 H6C2         3.6060    -1.8340     1.0890 hc         1 C1F       0.022367
     21 H6C3         2.2620    -2.8080     1.6860 hc         1 C1F       0.022367
     22 H7C1         4.7800     3.2180     0.4350 hc         1 C1F       0.016033
     23 H7C2         5.7940     1.7800     0.3530 hc         1 C1F       0.016033
     24 H7C3         5.5480     2.7680    -1.0850 hc         1 C1F       0.016033
     25 H9C1        -2.3290     0.4280     1.1550 hc         1 C1F       0.020700
     26 H9C2        -1.5680     1.9500     0.7940 hc         1 C1F       0.020700
     27 H111         3.8570     0.3400     1.2310 hc         1 C1F       0.031200
     28 H112         2.8770     1.7800     1.3550 hc         1 C1F       0.031200
     29 H121         3.1310     2.1420    -1.1280 hc         1 C1F       0.046700
     30 H122         4.1360     0.7110    -1.2140 hc         1 C1F       0.046700
     31 C11          3.1470     0.9600     0.6800 c3         1 C1F      -0.075700
@<TRIPOS>BOND
     1     1     2 1   
     2     1     5 1   
     3     1     9 2   
     4     2     3 2   
     5     2    13 1   
     6     3     4 1   
     7     3     6 1   
     8     4     8 1   
     9     4    17 1   
    10     4    18 1   
    11     5    19 1   
    12     5    20 1   
    13     5    21 1   
    14     6     9 1   
    15     7    10 1   
    16     7    22 1   
    17     7    23 1   
    18     7    24 1   
    19     8    11 1   
    20     8    25 1   
    21     8    26 1   
    22     9    31 1   
    23    10    29 1   
    24    10    30 1   
    25    10    31 1   
    26    11    15 1   
    27    11    16 1   
    28    12    13 1   
    29    13    14 1   
    30    27    31 1   
    31    28    31 1   
@<TRIPOS>SUBSTRUCTURE
     1 C1F         1 TEMP              0 ****  ****    0 ROOT
