@<TRIPOS>MOLECULE
C1H
   45    46     1     0     0
SMALL
abcg2


@<TRIPOS>ATOM
      1 OAA         -9.7760     2.4400     1.0660 o          1 C1H      -0.368000
      2 NAB         -9.8920     2.0170    -0.0470 no         1 C1H       0.788000
      3 OAC         -2.2450    -1.8950    -1.5280 o          1 C1H      -0.483000
      4 OAD          3.5590    -3.3260     1.2240 o          1 C1H      -0.507500
      5 OAE         -8.8670     1.3450    -0.5960 os         1 C1H      -0.393000
      6 CAF         -7.6920     1.1840     0.2300 c3         1 C1H       0.152600
      7 CAG         -6.7090     0.3840    -0.5970 c3         1 C1H      -0.083400
      8 CAH         -5.4200     0.1670     0.1900 c3         1 C1H      -0.084400
      9 CAI         -4.4360    -0.6330    -0.6340 c3         1 C1H       0.168600
     10 OAJ         -3.2370    -0.7890     0.1390 os         1 C1H      -0.446100
     11 CAK         -2.2230    -1.4210    -0.4180 c          1 C1H       0.610700
     12 CAL         -1.0320    -1.4870     0.4720 ca         1 C1H      -0.166600
     13 CAM          0.0980    -2.1310    -0.0130 ca         1 C1H       0.033000
     14 CAN          1.2260    -2.2050     0.7890 ca         1 C1H      -0.315500
     15 SAO          2.6510    -3.0220     0.1440 sy         1 C1H       1.187600
     16 NAP          3.3590    -1.8620    -0.8530 nu         1 C1H      -0.861000
     17 CAQ          3.8860    -0.6920    -0.4080 cc         1 C1H       0.680300
     18 NAR          3.9300    -0.3510     0.8470 nd         1 C1H      -0.410000
     19 NAS          4.5000     0.8470     1.0260 nd         1 C1H      -0.187000
     20 OAT          6.6640     3.0170     0.8820 o          1 C1H      -0.511000
     21 CAU         -1.0160    -0.9330     1.7520 ca         1 C1H       0.000000
     22 CAV          0.1210    -1.0230     2.5400 ca         1 C1H      -0.149000
     23 CAW          1.2570    -1.6600     2.0650 ca         1 C1H       0.043000
     24 OAX          2.2360    -4.0460    -0.7910 o          1 C1H      -0.507500
     25 SAY          4.5590     0.4750    -1.4920 ss         1 C1H      -0.130800
     26 CAZ          4.8730     1.3960    -0.0700 cc         1 C1H       0.121300
     27 SBA          5.6570     2.9880    -0.1540 sy         1 C1H       1.123200
     28 NBB          4.5400     4.1040     0.2170 n8         1 C1H      -1.020100
     29 OBC          5.9920     3.1410    -1.5550 o          1 C1H      -0.511000
     30 ONA        -10.8350     2.1130    -0.7740 o          1 C1H      -0.368000
     31 HAF         -7.2840     2.1630     0.4870 h1         1 C1H       0.066200
     32 HAFA        -7.9540     0.6540     1.1470 h1         1 C1H       0.066200
     33 HAG         -7.1480    -0.5800    -0.8660 hc         1 C1H       0.065700
     34 HAGA        -6.4880     0.9140    -1.5270 hc         1 C1H       0.065700
     35 HAH         -4.9800     1.1310     0.4570 hc         1 C1H       0.058700
     36 HAHA        -5.6380    -0.3600     1.1230 hc         1 C1H       0.058700
     37 HAI         -4.8440    -1.6160    -0.8820 h1         1 C1H       0.056200
     38 HAIA        -4.2040    -0.1180    -1.5690 h1         1 C1H       0.056200
     39 HAM          0.0870    -2.5660    -1.0030 ha         1 C1H       0.154000
     40 HNAP         3.2770    -2.0380    -1.8470 hn         1 C1H       0.532000
     41 HAU         -1.8880    -0.4290     2.1440 ha         1 C1H       0.134000
     42 HAV          0.1240    -0.5940     3.5320 ha         1 C1H       0.130000
     43 HAW          2.1410    -1.7260     2.6810 ha         1 C1H       0.158000
     44 HNBB         3.7860     4.2050    -0.4530 hn         1 C1H       0.495000
     45 HNBA         4.2170     4.0930     1.1780 hn         1 C1H       0.495000
@<TRIPOS>BOND
     1     1     2 1   
     2     2     5 1   
     3     2    30 1   
     4     3    11 2   
     5     4    15 2   
     6     5     6 1   
     7     6     7 1   
     8     6    31 1   
     9     6    32 1   
    10     7     8 1   
    11     7    33 1   
    12     7    34 1   
    13     8     9 1   
    14     8    35 1   
    15     8    36 1   
    16     9    10 1   
    17     9    37 1   
    18     9    38 1   
    19    10    11 1   
    20    11    12 1   
    21    12    13 ar  
    22    12    21 ar  
    23    13    14 ar  
    24    13    39 1   
    25    14    15 1   
    26    14    23 ar  
    27    15    16 1   
    28    15    24 2   
    29    16    17 1   
    30    16    40 1   
    31    17    18 2   
    32    17    25 1   
    33    18    19 1   
    34    19    26 2   
    35    20    27 2   
    36    21    22 ar  
    37    21    41 1   
    38    22    23 ar  
    39    22    42 1   
    40    23    43 1   
    41    25    26 1   
    42    26    27 1   
    43    27    28 1   
    44    27    29 2   
    45    28    44 1   
    46    28    45 1   
@<TRIPOS>SUBSTRUCTURE
     1 C1H         1 TEMP              0 ****  ****    0 ROOT
