@<TRIPOS>MOLECULE
C1H
   45    46     1     0     0
SMALL
No Charge or Current Charge


@<TRIPOS>ATOM
      1 OAA         -9.3520     2.8710     1.2690 o          1 C1H      -0.368000
      2 NAB         -9.4690     2.5900     0.0680 no         1 C1H       0.788000
      3 OAC         -1.7450    -1.6820    -1.7390 o          1 C1H      -0.483000
      4 OAD          3.8700    -3.9560     1.2780 o          1 C1H      -0.507500
      5 OAE         -8.3830     1.8820    -0.5720 os         1 C1H      -0.393000
      6 CAF         -7.2430     1.5560     0.2440 c3         1 C1H       0.152600
      7 CAG         -6.2330     0.8130    -0.6510 c3         1 C1H      -0.083400
      8 CAH         -4.9470     0.3980     0.1010 c3         1 C1H      -0.084400
      9 CAI         -3.9370    -0.3460    -0.7940 c3         1 C1H       0.168600
     10 OAJ         -2.7990    -0.6720     0.0210 os         1 C1H      -0.446100
     11 CAK         -1.7560    -1.3450    -0.5620 c          1 C1H       0.610700
     12 CAL         -0.6160    -1.6360     0.3820 ca         1 C1H      -0.166600
     13 CAM          0.5160    -2.3370    -0.0850 ca         1 C1H       0.033000
     14 CAN          1.5930    -2.6150     0.7830 ca         1 C1H      -0.315500
     15 SAO          3.0350    -3.4890     0.1690 sy         1 C1H       1.187600
     16 NAP          3.9610    -2.3410    -0.5910 nu         1 C1H      -0.861000
     17 CAQ          3.9400    -1.0430    -0.2130 cc         1 C1H       0.680300
     18 NAR          4.2380    -0.6770     1.0200 nd         1 C1H      -0.410000
     19 NAS          4.1860     0.6980     1.1760 nd         1 C1H      -0.187000
     20 OAT          4.3580     3.8000     1.0140 o          1 C1H      -0.511000
     21 CAU         -0.6570    -1.2190     1.7320 ca         1 C1H       0.000000
     22 CAV          0.4160    -1.4990     2.5940 ca         1 C1H      -0.149000
     23 CAW          1.5410    -2.1960     2.1270 ca         1 C1H       0.043000
     24 OAX          2.6490    -4.3570    -0.9430 o          1 C1H      -0.507500
     25 SAY          3.6280     0.2510    -1.3230 ss         1 C1H      -0.130800
     26 CAZ          3.8790     1.3150     0.0390 cc         1 C1H       0.121300
     27 SBA          3.7210     3.1220    -0.1150 sy         1 C1H       1.123200
     28 NBB          2.1190     3.4200     0.1110 n8         1 C1H      -1.020100
     29 OBC          3.9480     3.5400    -1.4980 o          1 C1H      -0.511000
     30 ONA        -10.4350     2.8580    -0.6530 o          1 C1H      -0.368000
     31 HAF         -6.7760     2.4650     0.6480 h1         1 C1H       0.066200
     32 HAFA        -7.5330     0.9100     1.0840 h1         1 C1H       0.066200
     33 HAG         -6.7150    -0.0820    -1.0660 hc         1 C1H       0.065700
     34 HAGA        -5.9650     1.4570    -1.4980 hc         1 C1H       0.065700
     35 HAH         -4.4650     1.2920     0.5150 hc         1 C1H       0.058700
     36 HAHA        -5.2150    -0.2460     0.9480 hc         1 C1H       0.058700
     37 HAI         -4.4030    -1.2550    -1.1980 h1         1 C1H       0.056200
     38 HAIA        -3.6450     0.2990    -1.6340 h1         1 C1H       0.056200
     39 HAM          0.5570    -2.6630    -1.1250 ha         1 C1H       0.154000
     40 HNAP         3.7520    -2.4750    -1.5670 hn         1 C1H       0.532000
     41 HAU         -1.5140    -0.6760     2.1240 ha         1 C1H       0.134000
     42 HAV          0.3770    -1.1730     3.6300 ha         1 C1H       0.130000
     43 HAW          2.3670    -2.3980     2.8090 ha         1 C1H       0.158000
     44 HNBB         2.1590     4.0900     0.8780 hn         1 C1H       0.495000
     45 HNBA         1.9250     4.0250    -0.6850 hn         1 C1H       0.495000
@<TRIPOS>BOND
     1     1     2 1   
     2     2     5 1   
     3     2    30 1   
     4     3    11 2   
     5     4    15 2   
     6     5     6 1   
     7     6     7 1   
     8     6    31 1   
     9     6    32 1   
    10     7     8 1   
    11     7    33 1   
    12     7    34 1   
    13     8     9 1   
    14     8    35 1   
    15     8    36 1   
    16     9    10 1   
    17     9    37 1   
    18     9    38 1   
    19    10    11 1   
    20    11    12 1   
    21    12    13 ar  
    22    12    21 ar  
    23    13    14 ar  
    24    13    39 1   
    25    14    15 1   
    26    14    23 ar  
    27    15    16 1   
    28    15    24 2   
    29    16    17 1   
    30    16    40 1   
    31    17    18 2   
    32    17    25 1   
    33    18    19 1   
    34    19    26 2   
    35    20    27 2   
    36    21    22 ar  
    37    21    41 1   
    38    22    23 ar  
    39    22    42 1   
    40    23    43 1   
    41    25    26 1   
    42    26    27 1   
    43    27    28 1   
    44    27    29 2   
    45    28    44 1   
    46    28    45 1   
@<TRIPOS>SUBSTRUCTURE
     1 C1H         1 TEMP              0 ****  ****    0 ROOT
