@<TRIPOS>MOLECULE
C1I
   71    77     1     0     0
SMALL
No Charge or Current Charge


@<TRIPOS>ATOM
      1 C1           7.2180    -1.0210     1.9040 c3         1 C1I       0.160100
      2 N2           6.9550    -1.2330     0.4590 n3         1 C1I      -0.711600
      3 C3           7.0260    -2.6610     0.0720 c3         1 C1I       0.160100
      4 C4           5.7600    -0.5010    -0.0980 c6         1 C1I       0.196500
      5 C6           4.4270    -0.9690     0.5500 c6         1 C1I      -0.098400
      6 C7           3.1800    -0.3590    -0.1370 c5         1 C1I       0.216200
      7 C8           2.7600    -1.0300    -1.4810 c5         1 C1I      -0.100400
      8 C9           1.2250    -0.7340    -1.5600 c5         1 C1I      -0.092400
      9 C10          0.8970    -0.2600    -0.0920 c5         1 C1I       0.223200
     10 O11          2.0370    -0.6180     0.6970 os         1 C1I      -0.436000
     11 C12          0.8380     1.2760    -0.1240 ce         1 C1I      -0.115200
     12 C13          2.1540     1.8900    -0.3470 ce         1 C1I      -0.146000
     13 C14          3.3130     1.1730    -0.3690 c2         1 C1I      -0.170400
     14 C15          4.6850     1.7470    -0.7410 c6         1 C1I       0.175500
     15 O17          4.7360     3.1690    -0.5320 oh         1 C1I      -0.662000
     16 C18          5.8550     1.0620     0.0280 c6         1 C1I       0.184300
     17 O20          7.1080     1.5850    -0.4620 oh         1 C1I      -0.638000
     18 C21         -0.2840     2.0330    -0.0200 c2         1 C1I      -0.182200
     19 C22         -1.6700     1.4400     0.2410 c6         1 C1I      -0.035200
     20 C23         -1.7100    -0.0910    -0.0380 c5         1 C1I      -0.037000
     21 C24         -1.9200    -0.2920    -1.5770 c3         1 C1I      -0.082100
     22 C25         -2.7270    -0.8890     0.8610 c5         1 C1I      -0.018400
     23 C26         -2.2530    -2.3890     0.7340 c5         1 C1I      -0.071400
     24 C27         -0.7040    -2.2920     0.4900 c5         1 C1I      -0.066400
     25 C28         -0.4390    -0.7580     0.5950 c5         1 C1I      -0.051700
     26 C29         -4.1850    -0.6700     0.4000 ca         1 C1I      -0.064300
     27 C30         -4.9540     0.2900     1.0950 ca         1 C1I      -0.084000
     28 C31         -6.2910     0.5480     0.7360 ca         1 C1I      -0.097000
     29 C32         -7.0630     1.5040     1.4270 ca         1 C1I       0.362900
     30 N33         -8.3530     1.7810     1.1130 nb         1 C1I      -0.665000
     31 C34         -8.9100     1.1000     0.0840 ca         1 C1I       0.322900
     32 C35         -8.2140     0.1300    -0.6590 ca         1 C1I      -0.146000
     33 C36         -6.8790    -0.1540    -0.3290 ca         1 C1I      -0.012000
     34 C37         -6.1320    -1.1070    -1.0350 ca         1 C1I      -0.107000
     35 C38         -4.7970    -1.3630    -0.6750 ca         1 C1I      -0.085000
     36 H11C         8.1730    -1.4830     2.1910 h1         1 C1I       0.029533
     37 H12C         7.2830     0.0470     2.1460 h1         1 C1I       0.029533
     38 H13C         6.4290    -1.4700     2.5210 h1         1 C1I       0.029533
     39 H31C         6.2600    -3.2540     0.5880 h1         1 C1I       0.029533
     40 H32C         6.8840    -2.7790    -1.0110 h1         1 C1I       0.029533
     41 H33C         8.0080    -3.0810     0.3290 h1         1 C1I       0.029533
     42 H4           5.6980    -0.7260    -1.1740 h1         1 C1I       0.061700
     43 H61C         4.3440    -2.0620     0.5270 hc         1 C1I       0.063200
     44 H62C         4.4150    -0.6840     1.6100 hc         1 C1I       0.063200
     45 H18          5.7460     1.3240     1.0910 h1         1 C1I       0.047700
     46 H81C         3.3100    -0.6340    -2.3420 hc         1 C1I       0.054200
     47 H82C         2.9430    -2.1110    -1.4550 hc         1 C1I       0.054200
     48 H91C         1.0260     0.0490    -2.3000 hc         1 C1I       0.054700
     49 H92C         0.6750    -1.6160    -1.8940 hc         1 C1I       0.054700
     50 H28         -0.3690    -0.4860     1.6570 hc         1 C1I       0.067700
     51 H13          2.1560     2.9650    -0.5270 ha         1 C1I       0.183000
     52 H21         -0.2340     3.1210    -0.0780 ha         1 C1I       0.175000
     53 H15          4.8350     1.5380    -1.8120 h1         1 C1I       0.044700
     54 H17          4.1470     3.5730    -1.2060 ho         1 C1I       0.450000
     55 H20          6.9550     2.5520    -0.5510 ho         1 C1I       0.451000
     56 H221        -1.9260     1.6320     1.2920 hc         1 C1I       0.054700
     57 H222        -2.4300     1.9660    -0.3530 hc         1 C1I       0.054700
     58 H241        -1.1970     0.2790    -2.1670 hc         1 C1I       0.037033
     59 H242        -1.8510    -1.3420    -1.8840 hc         1 C1I       0.037033
     60 H243        -2.9010     0.0770    -1.8960 hc         1 C1I       0.037033
     61 H25         -2.6300    -0.5850     1.9120 hc         1 C1I       0.052700
     62 H261        -2.4840    -2.9490     1.6470 hc         1 C1I       0.045200
     63 H262        -2.7140    -2.9440    -0.0860 hc         1 C1I       0.045200
     64 H271        -0.1340    -2.8500     1.2420 hc         1 C1I       0.048700
     65 H272        -0.4500    -2.7280    -0.4790 hc         1 C1I       0.048700
     66 H30         -4.5090     0.8410     1.9210 ha         1 C1I       0.115000
     67 H38         -4.2460    -2.0910    -1.2620 ha         1 C1I       0.115000
     68 H32         -6.6400     2.0670     2.2590 h4         1 C1I       0.018100
     69 H34         -9.9460     1.3390    -0.1510 h4         1 C1I       0.019100
     70 H35         -8.7120    -0.3850    -1.4760 ha         1 C1I       0.123000
     71 H37         -6.5790    -1.6480    -1.8660 ha         1 C1I       0.118000
@<TRIPOS>BOND
     1     1     2 1   
     2     1    36 1   
     3     1    37 1   
     4     1    38 1   
     5     2     3 1   
     6     2     4 1   
     7     3    39 1   
     8     3    40 1   
     9     3    41 1   
    10     4     5 1   
    11     4    16 1   
    12     4    42 1   
    13     5     6 1   
    14     5    43 1   
    15     5    44 1   
    16     6     7 1   
    17     6    10 1   
    18     6    13 1   
    19     7     8 1   
    20     7    46 1   
    21     7    47 1   
    22     8     9 1   
    23     8    48 1   
    24     8    49 1   
    25     9    10 1   
    26     9    11 1   
    27     9    25 1   
    28    11    12 1   
    29    11    18 2   
    30    12    13 2   
    31    12    51 1   
    32    13    14 1   
    33    14    15 1   
    34    14    16 1   
    35    14    53 1   
    36    15    54 1   
    37    16    17 1   
    38    16    45 1   
    39    17    55 1   
    40    18    19 1   
    41    18    52 1   
    42    19    20 1   
    43    19    56 1   
    44    19    57 1   
    45    20    21 1   
    46    20    22 1   
    47    20    25 1   
    48    21    58 1   
    49    21    59 1   
    50    21    60 1   
    51    22    23 1   
    52    22    26 1   
    53    22    61 1   
    54    23    24 1   
    55    23    62 1   
    56    23    63 1   
    57    24    25 1   
    58    24    64 1   
    59    24    65 1   
    60    25    50 1   
    61    26    27 ar  
    62    26    35 ar  
    63    27    28 ar  
    64    27    66 1   
    65    28    29 ar  
    66    28    33 ar  
    67    29    30 ar  
    68    29    68 1   
    69    30    31 ar  
    70    31    32 ar  
    71    31    69 1   
    72    32    33 ar  
    73    32    70 1   
    74    33    34 ar  
    75    34    35 ar  
    76    34    71 1   
    77    35    67 1   
@<TRIPOS>SUBSTRUCTURE
     1 C1I         1 TEMP              0 ****  ****    0 ROOT
