@<TRIPOS>MOLECULE
C1I
   71    77     1     0     0
SMALL
bcc


@<TRIPOS>ATOM
      1 C1           7.0270    -0.8800     1.9660 c3         1 C1I       0.160100
      2 N2           6.8510    -1.1020     0.5480 n3         1 C1I      -0.711600
      3 C3           6.9830    -2.5000     0.2060 c3         1 C1I       0.160100
      4 C4           5.6750    -0.4840    -0.0420 c6         1 C1I       0.196500
      5 C6           4.3420    -0.9550     0.5490 c6         1 C1I      -0.098400
      6 C7           3.1340    -0.3900    -0.1790 c5         1 C1I       0.193000
      7 C8           2.7660    -1.0630    -1.5080 c5         1 C1I      -0.100400
      8 C9           1.2680    -0.7400    -1.6160 c5         1 C1I      -0.092400
      9 C10          0.8790    -0.2570    -0.1880 c5         1 C1I       0.200000
     10 O11          1.9900    -0.6550     0.6110 os         1 C1I      -0.389600
     11 C12          0.8500     1.2570    -0.1300 ce         1 C1I      -0.115200
     12 C13          2.1610     1.8650    -0.3200 ce         1 C1I      -0.096000
     13 C14          3.2570     1.1050    -0.4050 c2         1 C1I      -0.170400
     14 C15          4.6050     1.6210    -0.8270 c6         1 C1I       0.152300
     15 O17          4.7050     3.0230    -0.7730 oh         1 C1I      -0.599800
     16 C18          5.7370     1.0400     0.0230 c6         1 C1I       0.161100
     17 O20          6.9850     1.4720    -0.4500 oh         1 C1I      -0.575800
     18 C21         -0.2680     1.9620     0.0770 c2         1 C1I      -0.132200
     19 C22         -1.6210     1.3630     0.3170 c6         1 C1I      -0.035200
     20 C23         -1.6650    -0.1160    -0.0600 c5         1 C1I      -0.037000
     21 C24         -1.8670    -0.2470    -1.5690 c3         1 C1I      -0.082100
     22 C25         -2.7130    -0.9380     0.7310 c5         1 C1I      -0.018400
     23 C26         -2.2150    -2.3940     0.6220 c5         1 C1I      -0.071400
     24 C27         -0.6930    -2.3010     0.3660 c5         1 C1I      -0.066400
     25 C28         -0.3870    -0.8060     0.4410 c5         1 C1I      -0.051700
     26 C29         -4.1510    -0.6790     0.3750 ca         1 C1I      -0.064300
     27 C30         -4.8760     0.2290     1.1070 ca         1 C1I      -0.102000
     28 C31         -6.2160     0.5300     0.7860 ca         1 C1I      -0.162300
     29 C32         -6.9820     1.4640     1.5240 ca         1 C1I       0.428200
     30 N33         -8.2240     1.7640     1.2560 nb         1 C1I      -0.665000
     31 C34         -8.8150     1.1430     0.2090 ca         1 C1I       0.388200
     32 C35         -8.1840     0.2220    -0.5800 ca         1 C1I      -0.229300
     33 C36         -6.8400    -0.1130    -0.3060 ca         1 C1I      -0.012000
     34 C37         -6.0910    -1.0490    -1.0520 ca         1 C1I      -0.125000
     35 C38         -4.7920    -1.3170    -0.7180 ca         1 C1I      -0.103000
     36 H11C         7.9970    -1.2770     2.2700 h1         1 C1I       0.029533
     37 H12C         7.0290     0.1850     2.1990 h1         1 C1I       0.029533
     38 H13C         6.2670    -1.3610     2.5980 h1         1 C1I       0.029533
     39 H31C         6.2550    -3.1590     0.7010 h1         1 C1I       0.029533
     40 H32C         6.8730    -2.6330    -0.8710 h1         1 C1I       0.029533
     41 H33C         7.9780    -2.8530     0.4830 h1         1 C1I       0.029533
     42 H4           5.7010    -0.7630    -1.1050 h1         1 C1I       0.061700
     43 H61C         4.2830    -2.0460     0.5300 hc         1 C1I       0.063200
     44 H62C         4.2830    -0.6490     1.5990 hc         1 C1I       0.063200
     45 H18          5.5760     1.3680     1.0640 h1         1 C1I       0.047700
     46 H81C         3.3420    -0.6940    -2.3580 hc         1 C1I       0.054200
     47 H82C         2.9380    -2.1400    -1.4360 hc         1 C1I       0.054200
     48 H91C         1.0750     0.0310    -2.3620 hc         1 C1I       0.054700
     49 H92C         0.7020    -1.6200    -1.9170 hc         1 C1I       0.054700
     50 H28         -0.3120    -0.5470     1.5060 hc         1 C1I       0.067700
     51 H13          2.2130     2.9430    -0.4330 ha         1 C1I       0.133000
     52 H21         -0.1990     3.0460     0.1080 ha         1 C1I       0.125000
     53 H15          4.7830     1.2690    -1.8570 h1         1 C1I       0.044700
     54 H17          4.3300     3.3950    -1.5770 ho         1 C1I       0.411000
     55 H20          6.9380     2.4290    -0.5550 ho         1 C1I       0.412000
     56 H221        -1.8750     1.4910     1.3770 hc         1 C1I       0.054700
     57 H222        -2.3830     1.9280    -0.2310 hc         1 C1I       0.054700
     58 H241        -1.1250     0.3310    -2.1200 hc         1 C1I       0.037033
     59 H242        -1.8060    -1.2790    -1.9180 hc         1 C1I       0.037033
     60 H243        -2.8450     0.1410    -1.8540 hc         1 C1I       0.037033
     61 H25         -2.5940    -0.6320     1.7770 hc         1 C1I       0.052700
     62 H261        -2.4490    -2.9430     1.5340 hc         1 C1I       0.045200
     63 H262        -2.7030    -2.9330    -0.1910 hc         1 C1I       0.045200
     64 H271        -0.1140    -2.8680     1.0960 hc         1 C1I       0.048700
     65 H272        -0.4530    -2.7140    -0.6150 hc         1 C1I       0.048700
     66 H30         -4.4190     0.7270     1.9550 ha         1 C1I       0.133000
     67 H38         -4.2440    -2.0390    -1.3100 ha         1 C1I       0.133000
     68 H32         -6.5220     1.9680     2.3700 h4         1 C1I       0.018100
     69 H34         -9.8460     1.4160     0.0170 h4         1 C1I       0.019100
     70 H35         -8.7090    -0.2440    -1.4040 ha         1 C1I       0.141000
     71 H37         -6.5540    -1.5530    -1.8920 ha         1 C1I       0.136000
@<TRIPOS>BOND
     1     1     2 1   
     2     1    36 1   
     3     1    37 1   
     4     1    38 1   
     5     2     3 1   
     6     2     4 1   
     7     3    39 1   
     8     3    40 1   
     9     3    41 1   
    10     4     5 1   
    11     4    16 1   
    12     4    42 1   
    13     5     6 1   
    14     5    43 1   
    15     5    44 1   
    16     6     7 1   
    17     6    10 1   
    18     6    13 1   
    19     7     8 1   
    20     7    46 1   
    21     7    47 1   
    22     8     9 1   
    23     8    48 1   
    24     8    49 1   
    25     9    10 1   
    26     9    11 1   
    27     9    25 1   
    28    11    12 1   
    29    11    18 2   
    30    12    13 2   
    31    12    51 1   
    32    13    14 1   
    33    14    15 1   
    34    14    16 1   
    35    14    53 1   
    36    15    54 1   
    37    16    17 1   
    38    16    45 1   
    39    17    55 1   
    40    18    19 1   
    41    18    52 1   
    42    19    20 1   
    43    19    56 1   
    44    19    57 1   
    45    20    21 1   
    46    20    22 1   
    47    20    25 1   
    48    21    58 1   
    49    21    59 1   
    50    21    60 1   
    51    22    23 1   
    52    22    26 1   
    53    22    61 1   
    54    23    24 1   
    55    23    62 1   
    56    23    63 1   
    57    24    25 1   
    58    24    64 1   
    59    24    65 1   
    60    25    50 1   
    61    26    27 ar  
    62    26    35 ar  
    63    27    28 ar  
    64    27    66 1   
    65    28    29 ar  
    66    28    33 ar  
    67    29    30 ar  
    68    29    68 1   
    69    30    31 ar  
    70    31    32 ar  
    71    31    69 1   
    72    32    33 ar  
    73    32    70 1   
    74    33    34 ar  
    75    34    35 ar  
    76    34    71 1   
    77    35    67 1   
@<TRIPOS>SUBSTRUCTURE
     1 C1I         1 TEMP              0 ****  ****    0 ROOT
