@<TRIPOS>MOLECULE
C1J
   49    48     1     0     0
SMALL
bcc


@<TRIPOS>ATOM
      1 N           -6.1980     2.1520    -0.0420 n8         1 C1J      -0.892800
      2 CA          -6.3760     0.7550    -0.4070 c3         1 C1J       0.013500
      3 C           -7.7420     0.1340    -0.0210 c          1 C1J       0.902600
      4 O           -8.4570     0.7640     0.7840 o          1 C1J      -0.838300
      5 CB          -5.2520    -0.0910     0.1980 c3         1 C1J      -0.050400
      6 CG          -3.8570     0.3450    -0.2290 c3         1 C1J      -0.083400
      7 CD          -2.7820    -0.5610     0.3470 c3         1 C1J       0.198800
      8 NE          -1.4660    -0.1150    -0.0570 nu         1 C1J      -0.884200
      9 CZ          -0.3420    -0.8460     0.2560 c2         1 C1J       0.803100
     10 NH1         -0.3090    -2.0390     0.7250 n2         1 C1J      -0.920100
     11 NH2          0.8250    -0.1640     0.0040 nu         1 C1J      -0.847200
     12 C01          3.2480     0.1400    -0.0120 c3         1 C1J      -0.089400
     13 C02          2.0960    -0.8520     0.0400 c3         1 C1J       0.220800
     14 C03          4.6030    -0.5550    -0.0220 c3         1 C1J      -0.073400
     15 C04          5.7740     0.4190    -0.0450 c3         1 C1J      -0.074400
     16 C05          7.1290    -0.2770    -0.0740 c3         1 C1J      -0.075400
     17 C06          8.3040     0.6930    -0.0890 c3         1 C1J      -0.075400
     18 C07          9.6600    -0.0030    -0.1230 c3         1 C1J      -0.075400
     19 C08         10.8260     0.9760    -0.1360 c3         1 C1J      -0.088100
     20 H1          -6.8980     2.7040    -0.5250 hn         1 C1J       0.326800
     21 H2          -6.4380     2.2520     0.9380 hn         1 C1J       0.326800
     22 H4          -6.2820     0.6870    -1.4980 h1         1 C1J       0.038700
     23 H6          -5.3250    -0.0560     1.2920 hc         1 C1J       0.040200
     24 H7          -5.4100    -1.1330    -0.0860 hc         1 C1J       0.040200
     25 H8          -3.7860     0.3360    -1.3220 hc         1 C1J       0.044200
     26 H9          -3.6850     1.3770     0.0870 hc         1 C1J       0.044200
     27 H10         -2.8810    -0.6040     1.4400 h1         1 C1J       0.034700
     28 H11         -2.9410    -1.5790    -0.0220 h1         1 C1J       0.034700
     29 H12         -1.3440     0.8860    -0.0270 hn         1 C1J       0.406800
     30 H13         -1.2370    -2.3760     0.9500 hn         1 C1J       0.388400
     31 H14          0.7560     0.5450    -0.7110 hn         1 C1J       0.403800
     32 H15          3.1570     0.7660    -0.9070 hc         1 C1J       0.040200
     33 H16          3.1810     0.8160     0.8470 hc         1 C1J       0.040200
     34 H17          2.1500    -1.4300     0.9630 h1         1 C1J       0.047200
     35 H18          2.1920    -1.5730    -0.7830 h1         1 C1J       0.047200
     36 H19          4.6880    -1.2030     0.8570 hc         1 C1J       0.039700
     37 H20          4.6660    -1.2170    -0.8930 hc         1 C1J       0.039700
     38 H21          5.6840     1.0750    -0.9180 hc         1 C1J       0.036700
     39 H22          5.7190     1.0730     0.8320 hc         1 C1J       0.036700
     40 H23          7.2170    -0.9390     0.7950 hc         1 C1J       0.037200
     41 H24          7.1850    -0.9270    -0.9550 hc         1 C1J       0.037200
     42 H25          8.2170     1.3560    -0.9570 hc         1 C1J       0.036200
     43 H26          8.2520     1.3410     0.7920 hc         1 C1J       0.036200
     44 H27          9.7470    -0.6670     0.7440 hc         1 C1J       0.036200
     45 H28          9.7130    -0.6500    -1.0040 hc         1 C1J       0.036200
     46 H29         11.7860     0.4600    -0.1570 hc         1 C1J       0.029700
     47 H30         10.7810     1.6280    -1.0100 hc         1 C1J       0.029700
     48 H31         10.8130     1.6140     0.7500 hc         1 C1J       0.029700
     49 O1          -8.0060    -0.9710    -0.5400 o          1 C1J      -0.838300
@<TRIPOS>BOND
     1     1     2 1   
     2     1    20 1   
     3     1    21 1   
     4     2     3 1   
     5     2     5 1   
     6     2    22 1   
     7     3     4 1   
     8     3    49 1   
     9     5     6 1   
    10     5    23 1   
    11     5    24 1   
    12     6     7 1   
    13     6    25 1   
    14     6    26 1   
    15     7     8 1   
    16     7    27 1   
    17     7    28 1   
    18     8     9 1   
    19     8    29 1   
    20     9    10 2   
    21     9    11 1   
    22    10    30 1   
    23    11    13 1   
    24    11    31 1   
    25    12    13 1   
    26    12    14 1   
    27    12    32 1   
    28    12    33 1   
    29    13    34 1   
    30    13    35 1   
    31    14    15 1   
    32    14    36 1   
    33    14    37 1   
    34    15    16 1   
    35    15    38 1   
    36    15    39 1   
    37    16    17 1   
    38    16    40 1   
    39    16    41 1   
    40    17    18 1   
    41    17    42 1   
    42    17    43 1   
    43    18    19 1   
    44    18    44 1   
    45    18    45 1   
    46    19    46 1   
    47    19    47 1   
    48    19    48 1   
@<TRIPOS>SUBSTRUCTURE
     1 C1J         1 TEMP              0 ****  ****    0 ROOT
