@<TRIPOS>MOLECULE
C1J
   49    48     1     0     0
SMALL
No Charge or Current Charge


@<TRIPOS>ATOM
      1 N           -6.1470     2.2850     0.4590 n8         1 C1J      -1.003200
      2 CA          -6.2390     1.0860    -0.4540 c3         1 C1J       0.013500
      3 C           -7.6910     0.4880    -0.6730 c          1 C1J       0.692000
      4 O           -8.3770     0.2480     0.3130 o          1 C1J      -0.733000
      5 CB          -5.2610    -0.0340    -0.0020 c3         1 C1J      -0.050400
      6 CG          -3.7620     0.3480    -0.0870 c3         1 C1J      -0.083400
      7 CD          -2.8280    -0.8090     0.3190 c3         1 C1J       0.198800
      8 NE          -1.4210    -0.4020     0.2030 nu         1 C1J      -0.939400
      9 CZ          -0.3690    -1.1720     0.4730 c2         1 C1J       0.803100
     10 NH1         -0.4560    -2.3470     0.8920 n2         1 C1J      -0.920100
     11 NH2          0.7720    -0.5290     0.2270 nu         1 C1J      -0.902400
     12 C01          3.2030    -0.1030     0.0440 c3         1 C1J      -0.089400
     13 C02          2.1030    -1.1170     0.4230 c3         1 C1J       0.220800
     14 C03          4.6290    -0.6640     0.2370 c3         1 C1J      -0.073400
     15 C04          5.7330     0.3470    -0.1400 c3         1 C1J      -0.074400
     16 C05          7.1590    -0.2150     0.0530 c3         1 C1J      -0.075400
     17 C06          8.2640     0.7970    -0.3250 c3         1 C1J      -0.075400
     18 C07          9.6890     0.2350    -0.1320 c3         1 C1J      -0.075400
     19 C08         10.7910     1.2440    -0.5090 c3         1 C1J      -0.088100
     20 H1          -6.7630     3.0250     0.1000 hn         1 C1J       0.382000
     21 H2          -6.5820     2.0380     1.3570 hn         1 C1J       0.382000
     22 H4          -5.9010     1.4230    -1.4440 h1         1 C1J       0.038700
     23 H6          -5.5040    -0.3400     1.0230 hc         1 C1J       0.040200
     24 H7          -5.4270    -0.9140    -0.6360 hc         1 C1J       0.040200
     25 H8          -3.5290     0.6560    -1.1140 hc         1 C1J       0.044200
     26 H9          -3.5660     1.2100     0.5620 hc         1 C1J       0.044200
     27 H10         -3.0490    -1.1050     1.3540 h1         1 C1J       0.034700
     28 H11         -3.0210    -1.6730    -0.3320 h1         1 C1J       0.034700
     29 H12         -1.2240     0.5870     0.2990 hn         1 C1J       0.462000
     30 H13         -1.4600    -2.5310     0.9650 hn         1 C1J       0.388400
     31 H14          0.6860     0.1570    -0.5110 hn         1 C1J       0.459000
     32 H15          3.0740     0.1960    -1.0030 hc         1 C1J       0.040200
     33 H16          3.0860     0.8000     0.6570 hc         1 C1J       0.040200
     34 H17          2.2320    -1.4130     1.4740 h1         1 C1J       0.047200
     35 H18          2.2130    -2.0170    -0.1980 h1         1 C1J       0.047200
     36 H19          4.7590    -0.9650     1.2850 hc         1 C1J       0.039700
     37 H20          4.7450    -1.5690    -0.3730 hc         1 C1J       0.039700
     38 H21          5.6040     0.6480    -1.1880 hc         1 C1J       0.036700
     39 H22          5.6170     1.2520     0.4700 hc         1 C1J       0.036700
     40 H23          7.2890    -0.5150     1.1000 hc         1 C1J       0.037200
     41 H24          7.2750    -1.1190    -0.5570 hc         1 C1J       0.037200
     42 H25          8.1340     1.0980    -1.3720 hc         1 C1J       0.036200
     43 H26          8.1470     1.7020     0.2850 hc         1 C1J       0.036200
     44 H27          9.8240    -0.0640     0.9150 hc         1 C1J       0.036200
     45 H28          9.8100    -0.6680    -0.7420 hc         1 C1J       0.036200
     46 H29         11.7830     0.8020    -0.3560 hc         1 C1J       0.029700
     47 H30         10.7050     1.5380    -1.5620 hc         1 C1J       0.029700
     48 H31         10.7190     2.1470     0.1100 hc         1 C1J       0.029700
     49 O1          -8.1140     0.3960    -1.8170 o          1 C1J      -0.733000
@<TRIPOS>BOND
     1     1     2 1   
     2     1    20 1   
     3     1    21 1   
     4     2     3 1   
     5     2     5 1   
     6     2    22 1   
     7     3     4 1   
     8     3    49 1   
     9     5     6 1   
    10     5    23 1   
    11     5    24 1   
    12     6     7 1   
    13     6    25 1   
    14     6    26 1   
    15     7     8 1   
    16     7    27 1   
    17     7    28 1   
    18     8     9 1   
    19     8    29 1   
    20     9    10 2   
    21     9    11 1   
    22    10    30 1   
    23    11    13 1   
    24    11    31 1   
    25    12    13 1   
    26    12    14 1   
    27    12    32 1   
    28    12    33 1   
    29    13    34 1   
    30    13    35 1   
    31    14    15 1   
    32    14    36 1   
    33    14    37 1   
    34    15    16 1   
    35    15    38 1   
    36    15    39 1   
    37    16    17 1   
    38    16    40 1   
    39    16    41 1   
    40    17    18 1   
    41    17    42 1   
    42    17    43 1   
    43    18    19 1   
    44    18    44 1   
    45    18    45 1   
    46    19    46 1   
    47    19    47 1   
    48    19    48 1   
@<TRIPOS>SUBSTRUCTURE
     1 C1J         1 TEMP              0 ****  ****    0 ROOT
