@<TRIPOS>MOLECULE
C1K
   40    41     1     0     0
SMALL
No Charge or Current Charge


@<TRIPOS>ATOM
      1 CAI        -49.6710   -30.4670    29.3240 c6         1 C1K      -0.090400
      2 CAF        -48.5920   -31.5010    29.7260 c6         1 C1K      -0.071900
      3 CAE        -47.8210   -32.0320    28.4830 c6         1 C1K      -0.075400
      4 CAG        -48.6860   -32.0550    27.1900 c6         1 C1K      -0.071900
      5 CAJ        -50.1870   -32.2500    27.5160 c6         1 C1K      -0.090400
      6 CAL        -50.7560   -31.0890    28.3860 c6         1 C1K       0.168500
      7 NAK        -51.3530   -30.0520    27.5150 n7         1 C1K      -0.864400
      8 CAQ        -52.2940   -29.1290    28.2220 c5         1 C1K       0.178500
      9 CAO        -52.2530   -27.7370    27.4730 c5         1 C1K       0.158300
     10 OAD        -51.3800   -26.7710    28.0800 oh         1 C1K      -0.726000
     11 CAM        -53.7470   -27.3030    27.5100 c5         1 C1K       0.136300
     12 OAB        -54.0390   -26.1910    26.6520 oh         1 C1K      -0.666000
     13 CAN        -54.3740   -28.6370    27.0170 c5         1 C1K       0.141300
     14 OAC        -55.8000   -28.6470    27.0420 oh         1 C1K      -0.726000
     15 CAP        -53.7920   -29.6140    28.0740 c5         1 C1K      -0.093700
     16 CAH        -54.0710   -31.1080    27.7680 c3         1 C1K       0.174600
     17 OAA        -55.4910   -31.3190    27.6550 oh         1 C1K      -0.694000
     18 HAI1       -50.1480   -30.0600    30.2250 hc         1 C1K       0.046950
     19 HAI2       -49.1780   -29.6190    28.8280 hc         1 C1K       0.046950
     20 HAF1       -47.8870   -31.0570    30.4410 hc         1 C1K       0.039200
     21 HAF2       -49.0730   -32.3400    30.2490 hc         1 C1K       0.039200
     22 HAL        -51.5440   -31.5270    29.0160 h1         1 C1K       0.053700
     23 HAE1       -46.9310   -31.4120    28.3060 hc         1 C1K       0.038200
     24 HAE2       -47.4480   -33.0420    28.7000 hc         1 C1K       0.038200
     25 HAG1       -48.5540   -31.1130    26.6400 hc         1 C1K       0.039200
     26 HAG2       -48.3350   -32.8520    26.5210 hc         1 C1K       0.039200
     27 HAJ1       -50.7670   -32.3570    26.5890 hc         1 C1K       0.046950
     28 HAJ2       -50.3120   -33.1990    28.0550 hc         1 C1K       0.046950
     29 HAK        -50.5750   -29.4990    27.1360 hn         1 C1K       0.423000
     30 HAQ        -52.0250   -29.0030    29.2810 h1         1 C1K       0.049700
     31 HAO        -51.9570   -27.8830    26.4230 h1         1 C1K       0.057700
     32 HAP        -54.2880   -29.4340    29.0360 hc         1 C1K       0.074700
     33 HAD        -51.6490   -25.8980    27.7050 ho         1 C1K       0.519000
     34 HAM        -54.0660   -27.0790    28.5390 h1         1 C1K       0.060700
     35 HAB        -54.9960   -26.2700    26.4360 ho         1 C1K       0.460000
     36 HAN        -54.0140   -28.8970    26.0100 h1         1 C1K       0.048700
     37 HAC        -56.0140   -29.6010    27.2380 ho         1 C1K       0.524000
     38 HAH1       -53.5700   -31.3920    26.8320 h1         1 C1K       0.038200
     39 HAH2       -53.6610   -31.7260    28.5770 h1         1 C1K       0.038200
     40 HAA        -55.6260   -32.2900    27.5600 ho         1 C1K       0.446000
@<TRIPOS>BOND
     1     1     2 1   
     2     1     6 1   
     3     1    18 1   
     4     1    19 1   
     5     2     3 1   
     6     2    20 1   
     7     2    21 1   
     8     3     4 1   
     9     3    23 1   
    10     3    24 1   
    11     4     5 1   
    12     4    25 1   
    13     4    26 1   
    14     5     6 1   
    15     5    27 1   
    16     5    28 1   
    17     6     7 1   
    18     6    22 1   
    19     7     8 1   
    20     7    29 1   
    21     8     9 1   
    22     8    15 1   
    23     8    30 1   
    24     9    10 1   
    25     9    11 1   
    26     9    31 1   
    27    10    33 1   
    28    11    12 1   
    29    11    13 1   
    30    11    34 1   
    31    12    35 1   
    32    13    14 1   
    33    13    15 1   
    34    13    36 1   
    35    14    37 1   
    36    15    16 1   
    37    15    32 1   
    38    16    17 1   
    39    16    38 1   
    40    16    39 1   
    41    17    40 1   
@<TRIPOS>SUBSTRUCTURE
     1 C1K         1 TEMP              0 ****  ****    0 ROOT
