@<TRIPOS>MOLECULE
C1K
   40    41     1     0     0
SMALL
abcg2


@<TRIPOS>ATOM
      1 CAI        -49.9280   -30.5510    29.3970 c6         1 C1K      -0.090400
      2 CAF        -48.8450   -31.4860    29.9330 c6         1 C1K      -0.071900
      3 CAE        -47.7900   -31.7840    28.8500 c6         1 C1K      -0.075400
      4 CAG        -48.4090   -31.7910    27.4370 c6         1 C1K      -0.071900
      5 CAJ        -49.8710   -32.2310    27.4890 c6         1 C1K      -0.090400
      6 CAL        -50.7420   -31.2200    28.2610 c6         1 C1K       0.168500
      7 NAK        -51.3300   -30.2600    27.3110 n7         1 C1K      -0.864400
      8 CAQ        -52.2500   -29.2930    27.9000 c5         1 C1K       0.178500
      9 CAO        -52.3570   -28.0290    27.0560 c5         1 C1K       0.158300
     10 OAD        -51.2020   -27.2190    27.2430 oh         1 C1K      -0.726000
     11 CAM        -53.6600   -27.4030    27.5250 c5         1 C1K       0.136300
     12 OAB        -54.0610   -26.3630    26.6410 oh         1 C1K      -0.666000
     13 CAN        -54.5950   -28.6000    27.5690 c5         1 C1K       0.141300
     14 OAC        -55.7340   -28.3210    28.3770 oh         1 C1K      -0.726000
     15 CAP        -53.7230   -29.7790    28.0650 c5         1 C1K      -0.093700
     16 CAH        -54.0830   -31.0530    27.3250 c3         1 C1K       0.174600
     17 OAA        -55.4790   -31.2900    27.5780 oh         1 C1K      -0.694000
     18 HAI1       -50.5920   -30.2330    30.2030 hc         1 C1K       0.046950
     19 HAI2       -49.4570   -29.6430    29.0030 hc         1 C1K       0.046950
     20 HAF1       -48.3660   -31.0530    30.8140 hc         1 C1K       0.039200
     21 HAF2       -49.3140   -32.4170    30.2630 hc         1 C1K       0.039200
     22 HAL        -51.5750   -31.7640    28.7120 h1         1 C1K       0.053700
     23 HAE1       -46.9950   -31.0350    28.8940 hc         1 C1K       0.038200
     24 HAE2       -47.3220   -32.7500    29.0550 hc         1 C1K       0.038200
     25 HAG1       -48.3520   -30.7890    27.0020 hc         1 C1K       0.039200
     26 HAG2       -47.8350   -32.4440    26.7760 hc         1 C1K       0.039200
     27 HAJ1       -50.2840   -32.3500    26.4850 hc         1 C1K       0.046950
     28 HAJ2       -49.9320   -33.2090    27.9740 hc         1 C1K       0.046950
     29 HAK        -50.5700   -29.7420    26.8790 hn         1 C1K       0.423000
     30 HAQ        -51.9030   -28.9620    28.8860 h1         1 C1K       0.049700
     31 HAO        -52.4550   -28.2960    25.9960 h1         1 C1K       0.057700
     32 HAP        -53.9350   -29.9360    29.1250 hc         1 C1K       0.074700
     33 HAD        -51.2250   -26.5020    26.5970 ho         1 C1K       0.519000
     34 HAM        -53.5220   -27.0070    28.5380 h1         1 C1K       0.060700
     35 HAB        -54.8270   -25.9160    27.0230 ho         1 C1K       0.460000
     36 HAN        -54.9220   -28.8030    26.5430 h1         1 C1K       0.048700
     37 HAC        -56.3050   -29.1000    28.3300 ho         1 C1K       0.524000
     38 HAH1       -53.9090   -30.9330    26.2530 h1         1 C1K       0.038200
     39 HAH2       -53.4880   -31.8990    27.6750 h1         1 C1K       0.038200
     40 HAA        -55.7810   -31.9950    26.9930 ho         1 C1K       0.446000
@<TRIPOS>BOND
     1     1     2 1   
     2     1     6 1   
     3     1    18 1   
     4     1    19 1   
     5     2     3 1   
     6     2    20 1   
     7     2    21 1   
     8     3     4 1   
     9     3    23 1   
    10     3    24 1   
    11     4     5 1   
    12     4    25 1   
    13     4    26 1   
    14     5     6 1   
    15     5    27 1   
    16     5    28 1   
    17     6     7 1   
    18     6    22 1   
    19     7     8 1   
    20     7    29 1   
    21     8     9 1   
    22     8    15 1   
    23     8    30 1   
    24     9    10 1   
    25     9    11 1   
    26     9    31 1   
    27    10    33 1   
    28    11    12 1   
    29    11    13 1   
    30    11    34 1   
    31    12    35 1   
    32    13    14 1   
    33    13    15 1   
    34    13    36 1   
    35    14    37 1   
    36    15    16 1   
    37    15    32 1   
    38    16    17 1   
    39    16    38 1   
    40    16    39 1   
    41    17    40 1   
@<TRIPOS>SUBSTRUCTURE
     1 C1K         1 TEMP              0 ****  ****    0 ROOT
