@<TRIPOS>MOLECULE
C1L
   46    49     1     0     0
SMALL
bcc


@<TRIPOS>ATOM
      1 C5           1.5810     1.1850    -0.7770 ca         1 C1L      -0.165000
      2 C14          3.7470     0.5400     0.0660 ca         1 C1L      -0.178000
      3 C2           1.0530    -0.0830    -0.4250 ca         1 C1L      -0.139300
      4 C3          -0.6990    -1.6850    -0.2350 ca         1 C1L      -0.298200
      5 C9           3.2890    -0.6980     0.4240 ca         1 C1L      -0.092600
      6 C1          -0.3060    -0.4260    -0.6430 ca         1 C1L       0.032700
      7 C4           1.9250    -1.0440     0.1880 ca         1 C1L       0.422600
      8 C10          2.8930     1.4940    -0.5410 ca         1 C1L       0.131100
      9 C7          -1.9090    -2.4650    -0.2330 cc         1 C1L       0.375900
     10 C6           0.2690    -2.5420     0.3510 ca         1 C1L       0.467800
     11 C20         -3.3360     1.7320    -0.9000 c6         1 C1L       0.124300
     12 C24         -1.6520     1.7830     0.7820 c6         1 C1L       0.124300
     13 C21         -4.3520     2.1590     0.1410 c6         1 C1L       0.129900
     14 C23         -2.7110     2.2090     1.7810 c6         1 C1L       0.129900
     15 C17          4.2000    -1.6980     1.0670 c3         1 C1L      -0.040800
     16 C13         -3.2670    -2.0940    -0.7130 c3         1 C1L      -0.106400
     17 C16          4.6490     3.1010    -0.6660 c3         1 C1L       0.127700
     18 C18         -1.3050     0.5200    -1.2530 c3         1 C1L       0.206100
     19 N8           1.5280    -2.2700     0.5690 nb         1 C1L      -0.693000
     20 N11         -0.3810    -3.6920     0.6410 na         1 C1L      -0.148800
     21 N12         -1.6770    -3.6360     0.2930 nd         1 C1L      -0.499100
     22 N19         -2.2620     0.9890    -0.2680 n3         1 C1L      -0.715600
     23 O22         -3.7550     2.9270     1.1620 os         1 C1L      -0.402600
     24 O15          3.3110     2.7220    -0.9140 os         1 C1L      -0.321900
     25 H5           0.9530     1.9320    -1.2420 ha         1 C1L       0.145000
     26 H14          4.7850     0.7790     0.2580 ha         1 C1L       0.137000
     27 H20         -3.8310     1.0950    -1.6370 h1         1 C1L       0.044700
     28 H20A        -2.9590     2.6210    -1.4360 h1         1 C1L       0.044700
     29 H24         -1.1400     2.6750     0.3790 h1         1 C1L       0.044700
     30 H24A        -0.9030     1.1890     1.3090 h1         1 C1L       0.044700
     31 H21         -5.1270     2.7710    -0.3210 h1         1 C1L       0.051700
     32 H21A        -4.8340     1.2650     0.5650 h1         1 C1L       0.051700
     33 H23         -3.1070     1.3160     2.2870 h1         1 C1L       0.051700
     34 H23A        -2.2700     2.8590     2.5390 h1         1 C1L       0.051700
     35 H17          3.8260    -2.0050     2.0440 hc         1 C1L       0.048367
     36 H17A         4.2830    -2.6030     0.4640 hc         1 C1L       0.048367
     37 H17B         5.1990    -1.2860     1.1990 hc         1 C1L       0.048367
     38 H13         -3.2710    -1.8960    -1.7870 hc         1 C1L       0.054700
     39 H13A        -3.9720    -2.9000    -0.5180 hc         1 C1L       0.054700
     40 H13B        -3.6120    -1.1890    -0.2150 hc         1 C1L       0.054700
     41 H16          4.8870     3.1020     0.4010 h1         1 C1L       0.040700
     42 H16A         5.3640     2.4590    -1.1860 h1         1 C1L       0.040700
     43 H16B         4.7550     4.1150    -1.0450 h1         1 C1L       0.040700
     44 H18         -0.8040     1.3520    -1.7640 h1         1 C1L       0.047200
     45 H18A        -1.8580    -0.0130    -2.0300 h1         1 C1L       0.047200
     46 HN11        -0.0080    -4.5190     1.0770 hn         1 C1L       0.335700
@<TRIPOS>BOND
     1     1     3 ar  
     2     1     8 ar  
     3     1    25 1   
     4     2     5 ar  
     5     2     8 ar  
     6     2    26 1   
     7     3     6 ar  
     8     3     7 ar  
     9     4     6 ar  
    10     4     9 1   
    11     4    10 ar  
    12     5     7 ar  
    13     5    15 1   
    14     6    18 1   
    15     7    19 ar  
    16     8    24 1   
    17     9    16 1   
    18     9    21 2   
    19    10    19 ar  
    20    10    20 1   
    21    11    13 1   
    22    11    22 1   
    23    11    27 1   
    24    11    28 1   
    25    12    14 1   
    26    12    22 1   
    27    12    29 1   
    28    12    30 1   
    29    13    23 1   
    30    13    31 1   
    31    13    32 1   
    32    14    23 1   
    33    14    33 1   
    34    14    34 1   
    35    15    35 1   
    36    15    36 1   
    37    15    37 1   
    38    16    38 1   
    39    16    39 1   
    40    16    40 1   
    41    17    24 1   
    42    17    41 1   
    43    17    42 1   
    44    17    43 1   
    45    18    22 1   
    46    18    44 1   
    47    18    45 1   
    48    20    21 1   
    49    20    46 1   
@<TRIPOS>SUBSTRUCTURE
     1 C1L         1 TEMP              0 ****  ****    0 ROOT
