@<TRIPOS>MOLECULE
C1L
   46    49     1     0     0
SMALL
No Charge or Current Charge


@<TRIPOS>ATOM
      1 C5           1.4910     1.1160    -0.6810 ca         1 C1L      -0.147000
      2 C14          3.7150     0.5570     0.1080 ca         1 C1L      -0.160000
      3 C2           1.0250    -0.1870    -0.3750 ca         1 C1L      -0.074000
      4 C3          -0.6630    -1.8960    -0.2340 ca         1 C1L      -0.232900
      5 C9           3.2810    -0.7440     0.4280 ca         1 C1L      -0.027300
      6 C1          -0.3290    -0.5770    -0.6140 ca         1 C1L       0.032700
      7 C4           1.9350    -1.1340     0.1960 ca         1 C1L       0.292000
      8 C10          2.8190     1.4880    -0.4440 ca         1 C1L       0.131100
      9 C7          -1.8980    -2.6670    -0.2780 cc         1 C1L       0.375900
     10 C6           0.2680    -2.7340     0.3070 ca         1 C1L       0.402500
     11 C20         -3.3880     1.7720    -0.9080 c6         1 C1L       0.124300
     12 C24         -1.5680     1.8640     0.7480 c6         1 C1L       0.124300
     13 C21         -4.3440     2.4040     0.1460 c6         1 C1L       0.153100
     14 C23         -2.5630     2.4950     1.7670 c6         1 C1L       0.153100
     15 C17          4.2890    -1.7230     1.0320 c3         1 C1L      -0.040800
     16 C13         -3.2500    -2.2270    -0.7680 c3         1 C1L      -0.106400
     17 C16          4.5290     3.2670    -0.5650 c3         1 C1L       0.150900
     18 C18         -1.3730     0.3610    -1.2430 c3         1 C1L       0.206100
     19 N8           1.5440    -2.3920     0.5240 nb         1 C1L      -0.693000
     20 N11         -0.3790    -3.9190     0.5510 na         1 C1L      -0.199100
     21 N12         -1.7280    -3.9070     0.1980 nd         1 C1L      -0.499100
     22 N19         -2.2760     1.0120    -0.2590 n3         1 C1L      -0.715600
     23 O22         -3.5970     3.2310     1.0710 os         1 C1L      -0.449000
     24 O15          3.1910     2.7770    -0.7680 os         1 C1L      -0.345100
     25 H5           0.8380     1.8740    -1.0970 ha         1 C1L       0.127000
     26 H14          4.7490     0.8280     0.2970 ha         1 C1L       0.119000
     27 H20         -3.9730     1.1080    -1.5610 h1         1 C1L       0.044700
     28 H20A        -2.9830     2.5740    -1.5420 h1         1 C1L       0.044700
     29 H24         -1.0210     2.6760     0.2460 h1         1 C1L       0.044700
     30 H24A        -0.8290     1.2720     1.3070 h1         1 C1L       0.044700
     31 H21         -5.1020     3.0200    -0.3570 h1         1 C1L       0.051700
     32 H21A        -4.8620     1.6110     0.7050 h1         1 C1L       0.051700
     33 H23         -3.0260     1.7050     2.3750 h1         1 C1L       0.051700
     34 H23A        -2.0260     3.1770     2.4410 h1         1 C1L       0.051700
     35 H17          3.9670    -2.0530     2.0270 hc         1 C1L       0.048367
     36 H17A         4.4000    -2.6120     0.4010 hc         1 C1L       0.048367
     37 H17B         5.2830    -1.2750     1.1430 hc         1 C1L       0.048367
     38 H13         -3.2320    -2.0210    -1.8440 hc         1 C1L       0.054700
     39 H13A        -4.0020    -3.0060    -0.5990 hc         1 C1L       0.054700
     40 H13B        -3.5890    -1.3310    -0.2390 hc         1 C1L       0.054700
     41 H16          4.8050     3.2200     0.4960 h1         1 C1L       0.040700
     42 H16A         5.2520     2.6800    -1.1440 h1         1 C1L       0.040700
     43 H16B         4.6030     4.3130    -0.8890 h1         1 C1L       0.040700
     44 H18         -0.8880     1.1170    -1.8690 h1         1 C1L       0.047200
     45 H18A        -1.9670    -0.2260    -1.9530 h1         1 C1L       0.047200
     46 HN11         0.0630    -4.7400     0.9530 hn         1 C1L       0.386000
@<TRIPOS>BOND
     1     1     3 ar  
     2     1     8 ar  
     3     1    25 1   
     4     2     5 ar  
     5     2     8 ar  
     6     2    26 1   
     7     3     6 ar  
     8     3     7 ar  
     9     4     6 ar  
    10     4     9 1   
    11     4    10 ar  
    12     5     7 ar  
    13     5    15 1   
    14     6    18 1   
    15     7    19 ar  
    16     8    24 1   
    17     9    16 1   
    18     9    21 2   
    19    10    19 ar  
    20    10    20 1   
    21    11    13 1   
    22    11    22 1   
    23    11    27 1   
    24    11    28 1   
    25    12    14 1   
    26    12    22 1   
    27    12    29 1   
    28    12    30 1   
    29    13    23 1   
    30    13    31 1   
    31    13    32 1   
    32    14    23 1   
    33    14    33 1   
    34    14    34 1   
    35    15    35 1   
    36    15    36 1   
    37    15    37 1   
    38    16    38 1   
    39    16    39 1   
    40    16    40 1   
    41    17    24 1   
    42    17    41 1   
    43    17    42 1   
    44    17    43 1   
    45    18    22 1   
    46    18    44 1   
    47    18    45 1   
    48    20    21 1   
    49    20    46 1   
@<TRIPOS>SUBSTRUCTURE
     1 C1L         1 TEMP              0 ****  ****    0 ROOT
