@<TRIPOS>MOLECULE
C1M
   17    18     1     0     0
SMALL
bcc


@<TRIPOS>ATOM
      1 CL1         -4.0000     0.0440    -0.0320 cl         1 C1M      -0.089400
      2 C2          -2.2720     0.0180    -0.0000 ca         1 C1M       0.027400
      3 C3          -1.5700     1.2140    -0.0250 ca         1 C1M      -0.105500
      4 C4          -0.1860     1.1940    -0.0180 ca         1 C1M      -0.116500
      5 C5           0.4820    -0.0210     0.0460 ca         1 C1M       0.006800
      6 C6          -0.2220    -1.2170     0.0790 ca         1 C1M      -0.116500
      7 C7          -1.6070    -1.1960     0.0590 ca         1 C1M      -0.105500
      8 N8           1.8960    -0.0420     0.0570 na         1 C1M       0.017500
      9 C9           2.7500    -1.0530    -0.1450 cc         1 C1M       0.391400
     10 N10          3.9640    -0.5810    -0.0650 nd         1 C1M      -0.378000
     11 N11          3.8350     0.7240     0.1890 nd         1 C1M      -0.036000
     12 N12          2.6110     1.0580     0.2670 nc         1 C1M      -0.201800
     13 H3          -2.0930     2.1590    -0.0670 ha         1 C1M       0.157500
     14 H7          -2.1540    -2.1270     0.0800 ha         1 C1M       0.157500
     15 H4           0.3630     2.1230    -0.0610 ha         1 C1M       0.157500
     16 H6           0.2790    -2.1730     0.1380 ha         1 C1M       0.157500
     17 H9           2.4660    -2.0720    -0.3430 h5         1 C1M       0.077100
@<TRIPOS>BOND
     1     1     2 1   
     2     2     3 ar  
     3     2     7 ar  
     4     3     4 ar  
     5     3    13 1   
     6     4     5 ar  
     7     4    15 1   
     8     5     6 ar  
     9     5     8 1   
    10     6     7 ar  
    11     6    16 1   
    12     7    14 1   
    13     8     9 1   
    14     8    12 1   
    15     9    10 2   
    16     9    17 1   
    17    10    11 1   
    18    11    12 2   
@<TRIPOS>SUBSTRUCTURE
     1 C1M         1 TEMP              0 ****  ****    0 ROOT
