@<TRIPOS>MOLECULE
C1M
   17    18     1     0     0
SMALL
No Charge or Current Charge


@<TRIPOS>ATOM
      1 Cl1         -4.0530     0.0090    -0.0220 cl         1 C1M      -0.181000
      2 C2          -2.2950     0.0030     0.0100 ca         1 C1M       0.119000
      3 C3          -1.5860     1.2030    -0.1620 ca         1 C1M      -0.087500
      4 C4          -0.1800     1.2000    -0.1360 ca         1 C1M      -0.098500
      5 C5           0.5290    -0.0060     0.0620 ca         1 C1M       0.006800
      6 C6          -0.1940    -1.2070     0.2340 ca         1 C1M      -0.098500
      7 C7          -1.6010    -1.2000     0.2080 ca         1 C1M      -0.087500
      8 N8           1.9280    -0.0080     0.0840 na         1 C1M       0.017500
      9 C9           2.7290    -0.9830    -0.4370 cc         1 C1M       0.391400
     10 N10          3.9660    -0.6190    -0.1430 nd         1 C1M      -0.378000
     11 N11          3.8740     0.5680     0.5630 nd         1 C1M      -0.036000
     12 N12          2.6330     0.9520     0.7220 nc         1 C1M      -0.201800
     13 H3          -2.1260     2.1340    -0.3160 ha         1 C1M       0.139500
     14 H7          -2.1530    -2.1270     0.3440 ha         1 C1M       0.139500
     15 H4           0.3580     2.1360    -0.2750 ha         1 C1M       0.139500
     16 H6           0.3270    -2.1480     0.3990 ha         1 C1M       0.139500
     17 H9           2.3850    -1.8540    -0.9790 h5         1 C1M       0.077100
@<TRIPOS>BOND
     1     1     2 1   
     2     2     3 ar  
     3     2     7 ar  
     4     3     4 ar  
     5     3    13 1   
     6     4     5 ar  
     7     4    15 1   
     8     5     6 ar  
     9     5     8 1   
    10     6     7 ar  
    11     6    16 1   
    12     7    14 1   
    13     8     9 1   
    14     8    12 1   
    15     9    10 2   
    16     9    17 1   
    17    10    11 1   
    18    11    12 2   
@<TRIPOS>SUBSTRUCTURE
     1 C1M         1 TEMP              0 ****  ****    0 ROOT
