@<TRIPOS>MOLECULE
C1N
   80    81     1     0     0
SMALL
No Charge or Current Charge


@<TRIPOS>ATOM
      1 C1         -11.8790   -11.2880     1.2380 ca         1 C1N      -0.084000
      2 C2         -12.1930   -12.2980     0.3110 ca         1 C1N      -0.115500
      3 C3         -11.9810   -13.6470     0.6410 ca         1 C1N      -0.097000
      4 C4         -11.4540   -13.9860     1.8990 ca         1 C1N      -0.115500
      5 C5         -11.1400   -12.9780     2.8270 ca         1 C1N      -0.084000
      6 C6         -11.3530   -11.6230     2.5020 ca         1 C1N      -0.102300
      7 C7         -11.0140   -10.5300     3.5070 c3         1 C1N       0.231900
      8 O8          -9.6500   -10.1310     3.3000 os         1 C1N      -0.455100
      9 C9          -9.1520    -9.1570     4.1070 c          1 C1N       0.638100
     10 O10         -9.7610    -8.5770     4.9910 o          1 C1N      -0.548000
     11 N11         -7.8570    -8.9120     3.7540 ns         1 C1N      -0.497900
     12 C12         -6.9670    -7.9290     4.4070 c3         1 C1N       0.052700
     13 C14         -6.1920    -6.3000     7.0080 c3         1 C1N      -0.092600
     14 C15         -4.0650    -7.4860     6.1940 c3         1 C1N      -0.092600
     15 C16         -5.8640    -7.5050     3.3960 c          1 C1N       0.600100
     16 C17         -6.4090    -8.5450     5.7270 c3         1 C1N      -0.089400
     17 O18         -5.3230    -8.2940     2.6310 o          1 C1N      -0.605100
     18 N19         -5.5440    -6.1640     3.4000 ns         1 C1N      -0.501900
     19 C20         -4.4860    -5.5400     2.5790 c3         1 C1N       0.037700
     20 C21         -5.0890    -5.1130     1.2080 c3         1 C1N      -0.081400
     21 C22         -4.1280    -4.5410     0.1240 c3         1 C1N      -0.057700
     22 C23         -2.9210    -5.4620    -0.1660 c3         1 C1N      -0.091100
     23 C24         -3.6940    -3.0750     0.3670 c3         1 C1N      -0.091100
     24 C25         -3.8690    -4.3720     3.3950 c          1 C1N       0.593100
     25 N26         -2.4910    -4.3010     3.3780 ns         1 C1N      -0.498900
     26 C27         -1.6850    -3.3190     4.1390 c3         1 C1N       0.009700
     27 C28         -1.5720    -3.7290     5.6300 c3         1 C1N      -0.040100
     28 O29         -4.5480    -3.5870     4.0440 o          1 C1N      -0.604100
     29 C30         -0.2930    -3.1290     3.4690 c          1 C1N       0.535100
     30 O31          0.1940    -3.9940     2.7430 o          1 C1N      -0.488100
     31 C32          0.4190    -1.7860     3.7310 c3         1 C1N       0.087600
     32 C33         -0.9400    -2.6520     6.5030 ca         1 C1N      -0.140300
     33 C35          0.3160    -2.8690     7.1050 ca         1 C1N      -0.067000
     34 C36          0.9040    -1.8660     7.8970 ca         1 C1N      -0.176000
     35 C37          0.2370    -0.6470     8.0950 ca         1 C1N       0.144100
     36 C38         -1.0170    -0.4300     7.5050 ca         1 C1N      -0.176000
     37 C39         -1.6070    -1.4290     6.7130 ca         1 C1N      -0.067000
     38 O40          0.7990     0.3290     8.8600 oh         1 C1N      -0.531100
     39 F1           1.1070    -1.3350     2.6470 f          1 C1N      -0.239000
     40 H1         -12.0440   -10.2460     0.9740 ha         1 C1N       0.114500
     41 H2         -12.5990   -12.0340    -0.6630 ha         1 C1N       0.115000
     42 H3         -12.2230   -14.4280    -0.0760 ha         1 C1N       0.113000
     43 H4         -11.2870   -15.0310     2.1550 ha         1 C1N       0.115000
     44 H5         -10.7300   -13.2490     3.7970 ha         1 C1N       0.114500
     45 H71        -11.6940    -9.6780     3.3670 h1         1 C1N       0.056200
     46 H72        -11.1580   -10.9110     4.5270 h1         1 C1N       0.056200
     47 H11         -7.4930    -9.4690     2.9890 hn         1 C1N       0.342500
     48 H12         -7.5620    -7.0380     4.6450 h1         1 C1N       0.087700
     49 H13         -5.4690    -8.2070     7.6050 hc         1 C1N       0.048700
     50 H141        -5.6240    -5.7880     7.7940 hc         1 C1N       0.035700
     51 H142        -7.2150    -6.4510     7.3750 hc         1 C1N       0.035700
     52 H143        -6.2330    -5.6370     6.1370 hc         1 C1N       0.035700
     53 H151        -3.9730    -6.8000     5.3480 hc         1 C1N       0.035700
     54 H152        -3.4550    -7.0780     7.0090 hc         1 C1N       0.035700
     55 H153        -3.6330    -8.4520     5.9060 hc         1 C1N       0.035700
     56 H171        -5.8490    -9.4560     5.4820 hc         1 C1N       0.056700
     57 H172        -7.2670    -8.8820     6.3230 hc         1 C1N       0.056700
     58 H19         -6.0450    -5.5720     4.0550 hn         1 C1N       0.332500
     59 H20         -3.6960    -6.2830     2.4120 h1         1 C1N       0.090700
     60 H211        -5.8940    -4.3890     1.3850 hc         1 C1N       0.057700
     61 H212        -5.5790    -5.9940     0.7740 hc         1 C1N       0.057700
     62 H22         -4.7190    -4.5170    -0.8010 hc         1 C1N       0.048700
     63 H231        -2.3700    -5.1070    -1.0450 hc         1 C1N       0.035533
     64 H232        -3.2560    -6.4870    -0.3700 hc         1 C1N       0.035533
     65 H233        -2.2250    -5.4880     0.6800 hc         1 C1N       0.035533
     66 H241        -2.9520    -2.9920     1.1660 hc         1 C1N       0.035533
     67 H242        -3.2420    -2.6600    -0.5420 hc         1 C1N       0.035533
     68 H243        -4.5560    -2.4500     0.6270 hc         1 C1N       0.035533
     69 H26         -2.0000    -4.9900     2.8170 hn         1 C1N       0.336500
     70 H27         -2.1990    -2.3500     4.0800 h1         1 C1N       0.088700
     71 H281        -1.0110    -4.6700     5.7010 hc         1 C1N       0.065700
     72 H282        -2.5740    -3.9510     6.0160 hc         1 C1N       0.065700
     73 H321         1.1160    -1.9170     4.5680 h1         1 C1N       0.071700
     74 H322        -0.3260    -1.0320     4.0110 h1         1 C1N       0.071700
     75 H35          0.8420    -3.8100     6.9560 ha         1 C1N       0.120500
     76 H36          1.8750    -2.0440     8.3520 ha         1 C1N       0.125000
     77 H38         -1.5340     0.5140     7.6620 ha         1 C1N       0.125000
     78 H39         -2.5820    -1.2520     6.2630 ha         1 C1N       0.120500
     79 H40          1.6640     0.0040     9.1920 ho         1 C1N       0.468000
     80 C13         -5.5320    -7.6540     6.6590 c3         1 C1N      -0.055700
@<TRIPOS>BOND
     1     1     2 ar  
     2     1     6 ar  
     3     1    40 1   
     4     2     3 ar  
     5     2    41 1   
     6     3     4 ar  
     7     3    42 1   
     8     4     5 ar  
     9     4    43 1   
    10     5     6 ar  
    11     5    44 1   
    12     6     7 1   
    13     7     8 1   
    14     7    45 1   
    15     7    46 1   
    16     8     9 1   
    17     9    10 2   
    18     9    11 1   
    19    11    12 1   
    20    11    47 1   
    21    12    15 1   
    22    12    16 1   
    23    12    48 1   
    24    13    50 1   
    25    13    51 1   
    26    13    52 1   
    27    13    80 1   
    28    14    53 1   
    29    14    54 1   
    30    14    55 1   
    31    14    80 1   
    32    15    17 2   
    33    15    18 1   
    34    16    56 1   
    35    16    57 1   
    36    16    80 1   
    37    18    19 1   
    38    18    58 1   
    39    19    20 1   
    40    19    24 1   
    41    19    59 1   
    42    20    21 1   
    43    20    60 1   
    44    20    61 1   
    45    21    22 1   
    46    21    23 1   
    47    21    62 1   
    48    22    63 1   
    49    22    64 1   
    50    22    65 1   
    51    23    66 1   
    52    23    67 1   
    53    23    68 1   
    54    24    25 1   
    55    24    28 2   
    56    25    26 1   
    57    25    69 1   
    58    26    27 1   
    59    26    29 1   
    60    26    70 1   
    61    27    32 1   
    62    27    71 1   
    63    27    72 1   
    64    29    30 2   
    65    29    31 1   
    66    31    39 1   
    67    31    73 1   
    68    31    74 1   
    69    32    33 ar  
    70    32    37 ar  
    71    33    34 ar  
    72    33    75 1   
    73    34    35 ar  
    74    34    76 1   
    75    35    36 ar  
    76    35    38 1   
    77    36    37 ar  
    78    36    77 1   
    79    37    78 1   
    80    38    79 1   
    81    49    80 1   
@<TRIPOS>SUBSTRUCTURE
     1 C1N         1 TEMP              0 ****  ****    0 ROOT
