@<TRIPOS>MOLECULE
C1N
   80    81     1     0     0
SMALL
abcg2


@<TRIPOS>ATOM
      1 C1         -11.6070   -11.1820     1.2850 ca         1 C1N      -0.084000
      2 C2         -11.8990   -12.2680     0.4710 ca         1 C1N      -0.115500
      3 C3         -11.6610   -13.5580     0.9240 ca         1 C1N      -0.097000
      4 C4         -11.1320   -13.7580     2.1930 ca         1 C1N      -0.115500
      5 C5         -10.8440   -12.6700     3.0050 ca         1 C1N      -0.084000
      6 C6         -11.0800   -11.3730     2.5580 ca         1 C1N      -0.102300
      7 C7         -10.7480   -10.1980     3.4270 c3         1 C1N       0.231900
      8 O8          -9.3400    -9.9670     3.3000 os         1 C1N      -0.455100
      9 C9          -8.8350    -8.9250     3.9690 c          1 C1N       0.638100
     10 O10         -9.5000    -8.1680     4.6470 o          1 C1N      -0.548000
     11 N11         -7.5070    -8.8300     3.7690 ns         1 C1N      -0.497900
     12 C12         -6.6860    -7.8600     4.4630 c3         1 C1N       0.052700
     13 C14         -5.9570    -6.2420     6.9700 c3         1 C1N      -0.092600
     14 C15         -3.8330    -7.2760     6.1170 c3         1 C1N      -0.092600
     15 C16         -5.6150    -7.4060     3.4780 c          1 C1N       0.600100
     16 C17         -6.0820    -8.4650     5.7340 c3         1 C1N      -0.089400
     17 O18         -4.8330    -8.2090     2.9940 o          1 C1N      -0.605100
     18 N19         -5.6100    -6.0910     3.2050 ns         1 C1N      -0.501900
     19 C20         -4.6410    -5.4430     2.3450 c3         1 C1N       0.037700
     20 C21         -5.2960    -4.9690     1.0480 c3         1 C1N      -0.081400
     21 C22         -4.3660    -4.4130    -0.0380 c3         1 C1N      -0.057700
     22 C23         -3.2620    -5.3970    -0.4130 c3         1 C1N      -0.091100
     23 C24         -3.7880    -3.0340     0.2730 c3         1 C1N      -0.091100
     24 C25         -4.0490    -4.2980     3.1630 c          1 C1N       0.593100
     25 N26         -2.7420    -4.4190     3.4530 ns         1 C1N      -0.498900
     26 C27         -2.0270    -3.4700     4.2700 c3         1 C1N       0.009700
     27 C28         -2.1570    -3.7970     5.7730 c3         1 C1N      -0.040100
     28 O29         -4.7410    -3.3650     3.5340 o          1 C1N      -0.604100
     29 C30         -0.5600    -3.4940     3.8670 c          1 C1N       0.535100
     30 O31          0.0290    -4.5290     3.6890 o          1 C1N      -0.488100
     31 C32          0.0880    -2.1500     3.6990 c3         1 C1N       0.087600
     32 C33         -1.3490    -2.8660     6.6310 ca         1 C1N      -0.140300
     33 C35         -0.1020    -3.2420     7.1180 ca         1 C1N      -0.067000
     34 C36          0.6850    -2.3610     7.8460 ca         1 C1N      -0.176000
     35 C37          0.2300    -1.0710     8.1010 ca         1 C1N       0.144100
     36 C38         -1.0210    -0.6800     7.6250 ca         1 C1N      -0.176000
     37 C39         -1.7940    -1.5720     6.9010 ca         1 C1N      -0.067000
     38 O40          0.9470    -0.1700     8.7990 oh         1 C1N      -0.531100
     39 F1           1.4360    -2.2870     3.4780 f          1 C1N      -0.239000
     40 H1         -11.7960   -10.1760     0.9280 ha         1 C1N       0.114500
     41 H2         -12.3160   -12.1050    -0.5150 ha         1 C1N       0.115000
     42 H3         -11.8890   -14.4070     0.2920 ha         1 C1N       0.113000
     43 H4         -10.9480   -14.7620     2.5530 ha         1 C1N       0.115000
     44 H5         -10.4390   -12.8340     3.9970 ha         1 C1N       0.114500
     45 H71        -11.3070    -9.3150     3.1110 h1         1 C1N       0.056200
     46 H72        -10.9990   -10.4020     4.4710 h1         1 C1N       0.056200
     47 H11         -7.0340    -9.5810     3.2890 hn         1 C1N       0.342500
     48 H12         -7.3290    -7.0220     4.7340 h1         1 C1N       0.087700
     49 H13         -5.1300    -8.1060     7.5700 hc         1 C1N       0.048700
     50 H141        -5.4320    -5.7120     7.7660 hc         1 C1N       0.035700
     51 H142        -6.9820    -6.4120     7.3060 hc         1 C1N       0.035700
     52 H143        -5.9950    -5.5670     6.1120 hc         1 C1N       0.035700
     53 H151        -3.8260    -6.5860     5.2720 hc         1 C1N       0.035700
     54 H152        -3.2290    -6.8160     6.9020 hc         1 C1N       0.035700
     55 H153        -3.3300    -8.1930     5.8050 hc         1 C1N       0.035700
     56 H171        -5.4920    -9.3440     5.4570 hc         1 C1N       0.056700
     57 H172        -6.9270    -8.8360     6.3210 hc         1 C1N       0.056700
     58 H19         -6.3430    -5.5130     3.5870 hn         1 C1N       0.332500
     59 H20         -3.8760    -6.1860     2.1210 h1         1 C1N       0.090700
     60 H211        -6.0650    -4.2290     1.2840 hc         1 C1N       0.057700
     61 H212        -5.8190    -5.8360     0.6340 hc         1 C1N       0.057700
     62 H22         -5.0080    -4.2940    -0.9180 hc         1 C1N       0.048700
     63 H231        -2.7370    -5.0650    -1.3100 hc         1 C1N       0.035533
     64 H232        -3.6610    -6.3930    -0.6150 hc         1 C1N       0.035533
     65 H233        -2.5120    -5.4940     0.3760 hc         1 C1N       0.035533
     66 H241        -3.0130    -3.0730     1.0400 hc         1 C1N       0.035533
     67 H242        -3.3260    -2.6090    -0.6200 hc         1 C1N       0.035533
     68 H243        -4.5590    -2.3400     0.6080 hc         1 C1N       0.035533
     69 H26         -2.2590    -5.2660     3.1910 hn         1 C1N       0.336500
     70 H27         -2.4390    -2.4740     4.0860 h1         1 C1N       0.088700
     71 H281        -1.8370    -4.8290     5.9300 hc         1 C1N       0.065700
     72 H282        -3.2170    -3.7450     6.0320 hc         1 C1N       0.065700
     73 H321        -0.0840    -1.5280     4.5820 h1         1 C1N       0.071700
     74 H322        -0.3790    -1.6470     2.8440 h1         1 C1N       0.071700
     75 H35          0.2710    -4.2420     6.9280 ha         1 C1N       0.120500
     76 H36          1.6530    -2.6820     8.2150 ha         1 C1N       0.125000
     77 H38         -1.3840     0.3200     7.8260 ha         1 C1N       0.125000
     78 H39         -2.7640    -1.2520     6.5380 ha         1 C1N       0.120500
     79 H40          1.7860    -0.5520     9.0820 ho         1 C1N       0.468000
     80 C13         -5.2430    -7.5480     6.6340 c3         1 C1N      -0.055700
@<TRIPOS>BOND
     1     1     2 ar  
     2     1     6 ar  
     3     1    40 1   
     4     2     3 ar  
     5     2    41 1   
     6     3     4 ar  
     7     3    42 1   
     8     4     5 ar  
     9     4    43 1   
    10     5     6 ar  
    11     5    44 1   
    12     6     7 1   
    13     7     8 1   
    14     7    45 1   
    15     7    46 1   
    16     8     9 1   
    17     9    10 2   
    18     9    11 1   
    19    11    12 1   
    20    11    47 1   
    21    12    15 1   
    22    12    16 1   
    23    12    48 1   
    24    13    50 1   
    25    13    51 1   
    26    13    52 1   
    27    13    80 1   
    28    14    53 1   
    29    14    54 1   
    30    14    55 1   
    31    14    80 1   
    32    15    17 2   
    33    15    18 1   
    34    16    56 1   
    35    16    57 1   
    36    16    80 1   
    37    18    19 1   
    38    18    58 1   
    39    19    20 1   
    40    19    24 1   
    41    19    59 1   
    42    20    21 1   
    43    20    60 1   
    44    20    61 1   
    45    21    22 1   
    46    21    23 1   
    47    21    62 1   
    48    22    63 1   
    49    22    64 1   
    50    22    65 1   
    51    23    66 1   
    52    23    67 1   
    53    23    68 1   
    54    24    25 1   
    55    24    28 2   
    56    25    26 1   
    57    25    69 1   
    58    26    27 1   
    59    26    29 1   
    60    26    70 1   
    61    27    32 1   
    62    27    71 1   
    63    27    72 1   
    64    29    30 2   
    65    29    31 1   
    66    31    39 1   
    67    31    73 1   
    68    31    74 1   
    69    32    33 ar  
    70    32    37 ar  
    71    33    34 ar  
    72    33    75 1   
    73    34    35 ar  
    74    34    76 1   
    75    35    36 ar  
    76    35    38 1   
    77    36    37 ar  
    78    36    77 1   
    79    37    78 1   
    80    38    79 1   
    81    49    80 1   
@<TRIPOS>SUBSTRUCTURE
     1 C1N         1 TEMP              0 ****  ****    0 ROOT
