@<TRIPOS>MOLECULE
C1P
   76    78     1     0     0
SMALL
No Charge or Current Charge


@<TRIPOS>ATOM
      1 N1          -2.4780    -1.7790    -0.1550 ns         1 C1P      -0.512900
      2 C15         -3.3740    -2.5140     0.5820 c          1 C1P       0.652100
      3 O16         -3.0860    -2.9700     1.6770 o          1 C1P      -0.641100
      4 N9          -4.6450    -2.6980     0.0010 n          1 C1P      -0.414800
      5 C14         -5.6140    -3.6470     0.6400 c6         1 C1P       0.060500
      6 C13         -7.0630    -3.5910     0.0960 c6         1 C1P       0.142100
      7 O12         -7.0630    -3.5320    -1.3410 os         1 C1P      -0.442000
      8 C11         -6.4310    -2.3380    -1.8310 c6         1 C1P       0.142100
      9 C10         -4.9360    -2.2950    -1.4180 c6         1 C1P       0.060500
     10 C2          -1.0850    -1.4830     0.2420 c3         1 C1P       0.042700
     11 C3          -0.6160    -0.1870    -0.4820 c          1 C1P       0.595100
     12 O4          -0.9240     0.0690    -1.6400 o          1 C1P      -0.614100
     13 N28          0.1530     0.6740     0.2780 ns         1 C1P      -0.497900
     14 C19          0.7130     1.9470    -0.1970 c3         1 C1P       0.111700
     15 C18          2.1720     2.1240     0.2940 c3         1 C1P      -0.062400
     16 C17          3.0770     0.9010    -0.0080 c3         1 C1P      -0.298400
     17 S33          4.8150     1.1430     0.4110 sy         1 C1P       1.043500
     18 O34          5.3620     2.0950    -0.5650 o          1 C1P      -0.523500
     19 O35          4.8740     1.4100     1.8540 o          1 C1P      -0.523500
     20 C32          5.5110    -0.4910     0.0930 ca         1 C1P      -0.264500
     21 C36          6.0020    -0.8160    -1.1890 ca         1 C1P      -0.017000
     22 C37          6.5110    -2.1020    -1.4400 ca         1 C1P      -0.128000
     23 C29          6.5280    -3.0680    -0.4190 ca         1 C1P      -0.055000
     24 C30          6.0360    -2.7470     0.8570 ca         1 C1P      -0.128000
     25 C31          5.5270    -1.4630     1.1160 ca         1 C1P      -0.017000
     26 C20         -0.1780     3.1480     0.2110 c3         1 C1P      -0.092400
     27 C21         -1.6220     3.0990    -0.3380 c3         1 C1P      -0.030100
     28 C22         -2.4100     4.3510     0.0220 ca         1 C1P      -0.083300
     29 C23         -2.4490     5.4470    -0.8620 ca         1 C1P      -0.107000
     30 C24         -3.1730     6.6040    -0.5260 ca         1 C1P      -0.108500
     31 C25         -3.8620     6.6720     0.6970 ca         1 C1P      -0.110000
     32 C26         -3.8250     5.5830     1.5840 ca         1 C1P      -0.108500
     33 C27         -3.1010     4.4260     1.2480 ca         1 C1P      -0.107000
     34 C5          -0.1860    -2.7110    -0.0860 c3         1 C1P      -0.093400
     35 C6           1.3250    -2.5660     0.2430 c3         1 C1P      -0.058700
     36 C7           1.5900    -2.3270     1.7490 c3         1 C1P      -0.090100
     37 C8           2.1240    -3.7890    -0.2600 c3         1 C1P      -0.090100
     38 HN1         -2.8010    -1.4300    -1.0480 hn         1 C1P       0.321500
     39 H141        -5.2320    -4.6690     0.5050 h1         1 C1P       0.056700
     40 H142        -5.6450    -3.4600     1.7230 h1         1 C1P       0.056700
     41 H131        -7.6200    -4.4800     0.4240 h1         1 C1P       0.055700
     42 H132        -7.5780    -2.7040     0.4930 h1         1 C1P       0.055700
     43 H111        -6.5180    -2.3040    -2.9260 h1         1 C1P       0.055700
     44 H112        -6.9550    -1.4610    -1.4230 h1         1 C1P       0.055700
     45 H101        -4.5740    -1.2730    -1.5950 h1         1 C1P       0.056700
     46 H102        -4.3730    -2.9600    -2.0880 h1         1 C1P       0.056700
     47 H2          -1.0670    -1.2890     1.3220 h1         1 C1P       0.088700
     48 H28          0.3450     0.3970     1.2320 hn         1 C1P       0.317500
     49 H19          0.7490     1.9160    -1.2950 h1         1 C1P       0.085700
     50 H18          2.5950     3.0180    -0.1820 hc         1 C1P       0.064700
     51 H17          2.7510     0.0400     0.5810 h1         1 C1P       0.101700
     52 H36          5.9870    -0.0810    -1.9930 ha         1 C1P       0.137000
     53 H37          6.8880    -2.3520    -2.4290 ha         1 C1P       0.121500
     54 H29          6.9200    -4.0630    -0.6170 ha         1 C1P       0.118000
     55 H30          6.0470    -3.4950     1.6460 ha         1 C1P       0.121500
     56 H31          5.1430    -1.2310     2.1090 ha         1 C1P       0.137000
     57 H201        -0.2150     3.2150     1.3050 hc         1 C1P       0.051700
     58 H202         0.2960     4.0720    -0.1440 hc         1 C1P       0.051700
     59 H211        -1.5900     2.9750    -1.4280 hc         1 C1P       0.052700
     60 H212        -2.1370     2.2150     0.0560 hc         1 C1P       0.052700
     61 H23         -1.9170     5.4030    -1.8100 ha         1 C1P       0.110500
     62 H24         -3.2000     7.4470    -1.2130 ha         1 C1P       0.112000
     63 H25         -4.4220     7.5680     0.9570 ha         1 C1P       0.112000
     64 H26         -4.3570     5.6350     2.5320 ha         1 C1P       0.112000
     65 H27         -3.0750     3.5880     1.9410 ha         1 C1P       0.110500
     66 H51         -0.5770    -3.5870     0.4450 hc         1 C1P       0.057200
     67 H52         -0.2890    -2.9310    -1.1560 hc         1 C1P       0.057200
     68 H6           1.7070    -1.7020    -0.3120 hc         1 C1P       0.043700
     69 H71          2.6660    -2.2480     1.9440 hc         1 C1P       0.035200
     70 H72          1.1230    -1.3990     2.0980 hc         1 C1P       0.035200
     71 H73          1.1960    -3.1550     2.3500 hc         1 C1P       0.035200
     72 H81          1.9810    -3.9300    -1.3380 hc         1 C1P       0.035200
     73 H82          3.1970    -3.6530    -0.0790 hc         1 C1P       0.035200
     74 H83          1.8030    -4.7040     0.2520 hc         1 C1P       0.035200
     75 H38          2.1700     2.3130     1.3760 hc         1 C1P       0.064700
     76 H39          3.0410     0.6440    -1.0720 h1         1 C1P       0.101700
@<TRIPOS>BOND
     1     1     2 1   
     2     1    10 1   
     3     1    38 1   
     4     2     3 2   
     5     2     4 1   
     6     4     5 1   
     7     4     9 1   
     8     5     6 1   
     9     5    39 1   
    10     5    40 1   
    11     6     7 1   
    12     6    41 1   
    13     6    42 1   
    14     7     8 1   
    15     8     9 1   
    16     8    43 1   
    17     8    44 1   
    18     9    45 1   
    19     9    46 1   
    20    10    11 1   
    21    10    34 1   
    22    10    47 1   
    23    11    12 2   
    24    11    13 1   
    25    13    14 1   
    26    13    48 1   
    27    14    15 1   
    28    14    26 1   
    29    14    49 1   
    30    15    16 1   
    31    15    50 1   
    32    15    75 1   
    33    16    17 1   
    34    16    51 1   
    35    16    76 1   
    36    17    18 2   
    37    17    19 2   
    38    17    20 1   
    39    20    21 ar  
    40    20    25 ar  
    41    21    22 ar  
    42    21    52 1   
    43    22    23 ar  
    44    22    53 1   
    45    23    24 ar  
    46    23    54 1   
    47    24    25 ar  
    48    24    55 1   
    49    25    56 1   
    50    26    27 1   
    51    26    57 1   
    52    26    58 1   
    53    27    28 1   
    54    27    59 1   
    55    27    60 1   
    56    28    29 ar  
    57    28    33 ar  
    58    29    30 ar  
    59    29    61 1   
    60    30    31 ar  
    61    30    62 1   
    62    31    32 ar  
    63    31    63 1   
    64    32    33 ar  
    65    32    64 1   
    66    33    65 1   
    67    34    35 1   
    68    34    66 1   
    69    34    67 1   
    70    35    36 1   
    71    35    37 1   
    72    35    68 1   
    73    36    69 1   
    74    36    70 1   
    75    36    71 1   
    76    37    72 1   
    77    37    73 1   
    78    37    74 1   
@<TRIPOS>SUBSTRUCTURE
     1 C1P         1 TEMP              0 ****  ****    0 ROOT
