@<TRIPOS>MOLECULE
C1P
   76    78     1     0     0
SMALL
bcc


@<TRIPOS>ATOM
      1 N1          -2.2790    -1.7640    -0.2240 ns         1 C1P      -0.579900
      2 C15         -3.2840    -2.2440     0.5600 c          1 C1P       0.786100
      3 O16         -3.1150    -2.4860     1.7510 o          1 C1P      -0.641100
      4 N9          -4.5050    -2.3990    -0.0420 n          1 C1P      -0.481800
      5 C14         -5.4890    -3.2510     0.6070 c6         1 C1P       0.060500
      6 C13         -6.8920    -2.8090     0.2420 c6         1 C1P       0.118900
      7 O12         -7.0740    -2.7620    -1.1560 os         1 C1P      -0.395600
      8 C11         -6.1740    -1.8450    -1.7290 c6         1 C1P       0.118900
      9 C10         -4.7250    -2.2210    -1.4670 c6         1 C1P       0.060500
     10 C2          -0.9300    -1.6190     0.2810 c3         1 C1P       0.042700
     11 C3          -0.3080    -0.4540    -0.4830 c          1 C1P       0.662100
     12 O4          -0.1730    -0.5080    -1.6970 o          1 C1P      -0.614100
     13 N28          0.0600     0.5940     0.2700 ns         1 C1P      -0.564900
     14 C19          0.6140     1.8310    -0.2450 c3         1 C1P       0.111700
     15 C18          2.0390     2.0410     0.2730 c3         1 C1P      -0.062400
     16 C17          2.9430     0.8900    -0.1370 c3         1 C1P      -0.187600
     17 S33          4.5860     1.0690     0.5490 sy         1 C1P       1.074300
     18 O34          5.2290     2.2240    -0.0780 o          1 C1P      -0.594300
     19 O35          4.4800     1.0320     2.0070 o          1 C1P      -0.594300
     20 C32          5.4070    -0.4060     0.0060 ca         1 C1P      -0.264500
     21 C36          6.0420    -0.4130    -1.2280 ca         1 C1P      -0.035000
     22 C37          6.6520    -1.5810    -1.6600 ca         1 C1P      -0.146000
     23 C29          6.6220    -2.7190    -0.8640 ca         1 C1P      -0.073000
     24 C30          5.9840    -2.6970     0.3690 ca         1 C1P      -0.146000
     25 C31          5.3720    -1.5350     0.8150 ca         1 C1P      -0.035000
     26 C20         -0.2800     3.0130     0.1240 c3         1 C1P      -0.092400
     27 C21         -1.6970     2.8960    -0.4370 c3         1 C1P      -0.030100
     28 C22         -2.5370     4.0860    -0.0670 ca         1 C1P      -0.083300
     29 C23         -2.4710     5.2630    -0.8100 ca         1 C1P      -0.125000
     30 C24         -3.2120     6.3790    -0.4460 ca         1 C1P      -0.126500
     31 C25         -4.0360     6.3350     0.6730 ca         1 C1P      -0.128000
     32 C26         -4.1100     5.1680     1.4220 ca         1 C1P      -0.126500
     33 C27         -3.3660     4.0540     1.0530 ca         1 C1P      -0.125000
     34 C5          -0.1120    -2.8970     0.0910 c3         1 C1P      -0.093400
     35 C6           1.3580    -2.8130     0.5010 c3         1 C1P      -0.058700
     36 C7           1.5340    -2.4300     1.9680 c3         1 C1P      -0.090100
     37 C8           2.0510    -4.1390     0.2070 c3         1 C1P      -0.090100
     38 HN1         -2.3500    -1.8370    -1.2260 hn         1 C1P       0.321500
     39 H141        -5.3420    -4.2960     0.3080 h1         1 C1P       0.056700
     40 H142        -5.3700    -3.1950     1.6860 h1         1 C1P       0.056700
     41 H131        -7.6140    -3.5190     0.6460 h1         1 C1P       0.055700
     42 H132        -7.0960    -1.8250     0.6870 h1         1 C1P       0.055700
     43 H111        -6.3520    -1.8290    -2.8050 h1         1 C1P       0.055700
     44 H112        -6.3570    -0.8340    -1.3390 h1         1 C1P       0.055700
     45 H101        -4.1190    -1.4030    -1.8540 h1         1 C1P       0.056700
     46 H102        -4.4620    -3.1300    -2.0230 h1         1 C1P       0.056700
     47 H2          -1.0020    -1.3770     1.3420 h1         1 C1P       0.088700
     48 H28         -0.1450     0.5610     1.2570 hn         1 C1P       0.317500
     49 H19          0.6430     1.7380    -1.3320 h1         1 C1P       0.085700
     50 H18          2.4210     2.9790    -0.1330 hc         1 C1P       0.064700
     51 H17          2.5670    -0.0660     0.2290 h1         1 C1P       0.101700
     52 H36          6.0670     0.4750    -1.8470 ha         1 C1P       0.155000
     53 H37          7.1560    -1.5990    -2.6170 ha         1 C1P       0.139500
     54 H29          7.1010    -3.6270    -1.2060 ha         1 C1P       0.136000
     55 H30          5.9680    -3.5820     0.9910 ha         1 C1P       0.139500
     56 H31          4.8890    -1.5130     1.7820 ha         1 C1P       0.155000
     57 H201        -0.3210     3.1180     1.2140 hc         1 C1P       0.051700
     58 H202         0.1860     3.9260    -0.2550 hc         1 C1P       0.051700
     59 H211        -1.6460     2.7970    -1.5240 hc         1 C1P       0.052700
     60 H212        -2.1690     1.9850    -0.0610 hc         1 C1P       0.052700
     61 H23         -1.8310     5.3070    -1.6840 ha         1 C1P       0.128500
     62 H24         -3.1490     7.2840    -1.0370 ha         1 C1P       0.130000
     63 H25         -4.6180     7.2020     0.9560 ha         1 C1P       0.130000
     64 H26         -4.7500     5.1220     2.2930 ha         1 C1P       0.130000
     65 H27         -3.4300     3.1460     1.6410 ha         1 C1P       0.128500
     66 H51         -0.6010    -3.6890     0.6670 hc         1 C1P       0.057200
     67 H52         -0.1740    -3.1940    -0.9600 hc         1 C1P       0.057200
     68 H6           1.8450    -2.0490    -0.1180 hc         1 C1P       0.043700
     69 H71          2.5870    -2.4560     2.2550 hc         1 C1P       0.035200
     70 H72          1.1680    -1.4270     2.1900 hc         1 C1P       0.035200
     71 H73          1.0000    -3.1270     2.6190 hc         1 C1P       0.035200
     72 H81          1.9660    -4.4070    -0.8470 hc         1 C1P       0.035200
     73 H82          3.1130    -4.0900     0.4540 hc         1 C1P       0.035200
     74 H83          1.6090    -4.9480     0.7930 hc         1 C1P       0.035200
     75 H38          2.0190     2.1410     1.3610 hc         1 C1P       0.064700
     76 H39          3.0530     0.8230    -1.2210 h1         1 C1P       0.101700
@<TRIPOS>BOND
     1     1     2 1   
     2     1    10 1   
     3     1    38 1   
     4     2     3 2   
     5     2     4 1   
     6     4     5 1   
     7     4     9 1   
     8     5     6 1   
     9     5    39 1   
    10     5    40 1   
    11     6     7 1   
    12     6    41 1   
    13     6    42 1   
    14     7     8 1   
    15     8     9 1   
    16     8    43 1   
    17     8    44 1   
    18     9    45 1   
    19     9    46 1   
    20    10    11 1   
    21    10    34 1   
    22    10    47 1   
    23    11    12 2   
    24    11    13 1   
    25    13    14 1   
    26    13    48 1   
    27    14    15 1   
    28    14    26 1   
    29    14    49 1   
    30    15    16 1   
    31    15    50 1   
    32    15    75 1   
    33    16    17 1   
    34    16    51 1   
    35    16    76 1   
    36    17    18 2   
    37    17    19 2   
    38    17    20 1   
    39    20    21 ar  
    40    20    25 ar  
    41    21    22 ar  
    42    21    52 1   
    43    22    23 ar  
    44    22    53 1   
    45    23    24 ar  
    46    23    54 1   
    47    24    25 ar  
    48    24    55 1   
    49    25    56 1   
    50    26    27 1   
    51    26    57 1   
    52    26    58 1   
    53    27    28 1   
    54    27    59 1   
    55    27    60 1   
    56    28    29 ar  
    57    28    33 ar  
    58    29    30 ar  
    59    29    61 1   
    60    30    31 ar  
    61    30    62 1   
    62    31    32 ar  
    63    31    63 1   
    64    32    33 ar  
    65    32    64 1   
    66    33    65 1   
    67    34    35 1   
    68    34    66 1   
    69    34    67 1   
    70    35    36 1   
    71    35    37 1   
    72    35    68 1   
    73    36    69 1   
    74    36    70 1   
    75    36    71 1   
    76    37    72 1   
    77    37    73 1   
    78    37    74 1   
@<TRIPOS>SUBSTRUCTURE
     1 C1P         1 TEMP              0 ****  ****    0 ROOT
