@<TRIPOS>MOLECULE
C1R
   28    28     1     0     0
SMALL
No Charge or Current Charge


@<TRIPOS>ATOM
      1 C1           2.6720    -1.5830    -0.2200 c6         1 C1R       0.160300
      2 C2           1.2610    -1.1240     0.2260 c6         1 C1R      -0.072900
      3 C3           0.9590     0.3280    -0.2470 c6         1 C1R      -0.059700
      4 C4           2.1060     1.2700     0.2170 c6         1 C1R      -0.072900
      5 C5           3.4900     0.7430    -0.2350 c6         1 C1R       0.160300
      6 N6           3.7200    -0.6420     0.2410 n7         1 C1R      -0.862400
      7 C7          -0.4270     0.8540     0.2380 c3         1 C1R      -0.071400
      8 C8          -1.6550     0.0740    -0.2900 c3         1 C1R      -0.066400
      9 C9          -3.0000     0.7050     0.1440 c3         1 C1R      -0.204400
     10 O12         -4.6510    -1.0780     0.1410 o          1 C1R      -0.513100
     11 C10         -4.1940    -0.0800    -0.4060 c          1 C1R       0.574900
     12 H11          2.7030    -1.6530    -1.3180 h1         1 C1R       0.028200
     13 H12          2.8780    -2.5860     0.1830 h1         1 C1R       0.028200
     14 H21          1.1850    -1.1850     1.3210 hc         1 C1R       0.046450
     15 H22          0.5190    -1.8240    -0.1790 hc         1 C1R       0.046450
     16 H3           0.9310     0.3380    -1.3460 hc         1 C1R       0.040700
     17 H41          1.9520     2.2790    -0.1870 hc         1 C1R       0.046450
     18 H42          2.0930     1.3650     1.3110 hc         1 C1R       0.046450
     19 H51          3.5510     0.7660    -1.3330 h1         1 C1R       0.028200
     20 H52          4.2810     1.4000     0.1560 h1         1 C1R       0.028200
     21 HN6          4.6320    -0.9650    -0.1080 hn         1 C1R       0.410000
     22 H71         -0.5360     1.9020    -0.0670 hc         1 C1R       0.041700
     23 H72         -0.4580     0.8540     1.3350 hc         1 C1R       0.041700
     24 H81         -1.6190    -0.9600     0.0730 hc         1 C1R       0.042700
     25 H82         -1.6120     0.0320    -1.3860 hc         1 C1R       0.042700
     26 H91         -3.0390     1.7210    -0.2660 hc         1 C1R       0.067200
     27 H92         -3.0520     0.7250     1.2390 hc         1 C1R       0.067200
     28 H10         -4.6220     0.3000    -1.3590 h4         1 C1R      -0.021800
@<TRIPOS>BOND
     1     1     2 1   
     2     1     6 1   
     3     1    12 1   
     4     1    13 1   
     5     2     3 1   
     6     2    14 1   
     7     2    15 1   
     8     3     4 1   
     9     3     7 1   
    10     3    16 1   
    11     4     5 1   
    12     4    17 1   
    13     4    18 1   
    14     5     6 1   
    15     5    19 1   
    16     5    20 1   
    17     6    21 1   
    18     7     8 1   
    19     7    22 1   
    20     7    23 1   
    21     8     9 1   
    22     8    24 1   
    23     8    25 1   
    24     9    11 1   
    25     9    26 1   
    26     9    27 1   
    27    10    11 2   
    28    11    28 1   
@<TRIPOS>SUBSTRUCTURE
     1 C1R         1 TEMP              0 ****  ****    0 ROOT
