@<TRIPOS>MOLECULE
C1R
   28    28     1     0     0
SMALL
bcc


@<TRIPOS>ATOM
      1 C1           2.6540    -1.5350    -0.2170 c6         1 C1R       0.160300
      2 C2           1.2670    -1.1060     0.2400 c6         1 C1R      -0.072900
      3 C3           0.9340     0.3080    -0.2370 c6         1 C1R      -0.059700
      4 C4           2.0610     1.2570     0.1700 c6         1 C1R      -0.072900
      5 C5           3.4150     0.7410    -0.2920 c6         1 C1R       0.160300
      6 N6           3.6490    -0.5860     0.2490 n7         1 C1R      -0.807200
      7 C7          -0.4140     0.8070     0.2740 c3         1 C1R      -0.071400
      8 C8          -1.6130     0.0610    -0.2980 c3         1 C1R      -0.066400
      9 C9          -2.9380     0.6190     0.2230 c3         1 C1R      -0.204400
     10 O12         -5.0470    -0.5340     0.1270 o          1 C1R      -0.513100
     11 C10         -4.1080    -0.0330    -0.4410 c          1 C1R       0.574900
     12 H11          2.6500    -1.6340    -1.3160 h1         1 C1R       0.028200
     13 H12          2.8910    -2.5220     0.1860 h1         1 C1R       0.028200
     14 H21          1.2240    -1.1360     1.3350 hc         1 C1R       0.046450
     15 H22          0.5300    -1.8250    -0.1270 hc         1 C1R       0.046450
     16 H3           0.8930     0.2920    -1.3360 hc         1 C1R       0.040700
     17 H41          1.8830     2.2520    -0.2460 hc         1 C1R       0.046450
     18 H42          2.0690     1.3640     1.2600 hc         1 C1R       0.046450
     19 H51          3.4420     0.7550    -1.3950 h1         1 C1R       0.028200
     20 H52          4.2090     1.4080     0.0510 h1         1 C1R       0.028200
     21 HN6          4.5710    -0.9040    -0.0220 hn         1 C1R       0.354800
     22 H71         -0.5150     1.8700     0.0280 hc         1 C1R       0.041700
     23 H72         -0.4320     0.7480     1.3690 hc         1 C1R       0.041700
     24 H81         -1.5490    -1.0030    -0.0580 hc         1 C1R       0.042700
     25 H82         -1.5910     0.1320    -1.3910 hc         1 C1R       0.042700
     26 H91         -2.9920     1.6880    -0.0180 hc         1 C1R       0.067200
     27 H92         -3.0160     0.5200     1.3070 hc         1 C1R       0.067200
     28 H10         -4.0610    -0.0260    -1.5460 h4         1 C1R      -0.021800
@<TRIPOS>BOND
     1     1     2 1   
     2     1     6 1   
     3     1    12 1   
     4     1    13 1   
     5     2     3 1   
     6     2    14 1   
     7     2    15 1   
     8     3     4 1   
     9     3     7 1   
    10     3    16 1   
    11     4     5 1   
    12     4    17 1   
    13     4    18 1   
    14     5     6 1   
    15     5    19 1   
    16     5    20 1   
    17     6    21 1   
    18     7     8 1   
    19     7    22 1   
    20     7    23 1   
    21     8     9 1   
    22     8    24 1   
    23     8    25 1   
    24     9    11 1   
    25     9    26 1   
    26     9    27 1   
    27    10    11 2   
    28    11    28 1   
@<TRIPOS>SUBSTRUCTURE
     1 C1R         1 TEMP              0 ****  ****    0 ROOT
