@<TRIPOS>MOLECULE
C1S
   21    20     1     0     0
SMALL
No Charge or Current Charge


@<TRIPOS>ATOM
      1 O            3.5360    -0.6740     1.1640 o          1 C1S      -0.726000
      2 C            3.3810     0.1670     0.2880 c          1 C1S       0.696000
      3 CA           2.0240     0.1710    -0.5160 c3         1 C1S       0.006500
      4 N            1.7680    -1.0580    -1.3680 n8         1 C1S      -0.990200
      5 CB           0.8630     0.4840     0.4730 c3         1 C1S       0.114600
      6 SG          -0.7030     1.0240    -0.3720 ss         1 C1S      -0.295000
      7 SD          -1.7690    -0.7510    -0.7080 ss         1 C1S      -0.224000
      8 CE          -2.7790    -0.9690     0.8230 c3         1 C1S       0.066800
      9 CZ          -3.7750     0.1670     0.9340 c2         1 C1S      -0.188200
     10 CH          -5.0870     0.0780     0.6650 c2         1 C1S      -0.340000
     11 OXT          4.2540     0.9560    -0.0450 o          1 C1S      -0.726000
     12 H1           2.0880     1.0260    -1.2030 h1         1 C1S       0.055700
     13 H2           2.5590    -1.1960    -2.0080 hn         1 C1S       0.386500
     14 H3           1.8020    -1.8900    -0.7670 hn         1 C1S       0.386500
     15 H5           0.6580    -0.3830     1.1150 h1         1 C1S       0.074700
     16 H6           1.1810     1.3090     1.1240 h1         1 C1S       0.074700
     17 H7          -3.3000    -1.9340     0.7720 h1         1 C1S       0.070200
     18 H8          -2.1120    -0.9820     1.6950 h1         1 C1S       0.070200
     19 H9          -3.3380     1.1120     1.2650 ha         1 C1S       0.181000
     20 H11         -5.5430    -0.8560     0.3320 ha         1 C1S       0.154000
     21 H12         -5.7500     0.9390     0.7660 ha         1 C1S       0.154000
@<TRIPOS>BOND
     1     1     2 1   
     2     2     3 1   
     3     2    11 1   
     4     3     4 1   
     5     3     5 1   
     6     3    12 1   
     7     4    13 1   
     8     4    14 1   
     9     5     6 1   
    10     5    15 1   
    11     5    16 1   
    12     6     7 1   
    13     7     8 1   
    14     8     9 1   
    15     8    17 1   
    16     8    18 1   
    17     9    10 2   
    18     9    19 1   
    19    10    20 1   
    20    10    21 1   
@<TRIPOS>SUBSTRUCTURE
     1 C1S         1 TEMP              0 ****  ****    0 ROOT
