@<TRIPOS>MOLECULE
C1S
   21    20     1     0     0
SMALL
bcc


@<TRIPOS>ATOM
      1 O            3.9880    -1.0920     0.1440 o          1 C1S      -0.831300
      2 C            3.3550    -0.0300     0.2910 c          1 C1S       0.906600
      3 CA           2.0360     0.1350    -0.5180 c3         1 C1S       0.006500
      4 N            1.6150    -1.0170    -1.2920 n8         1 C1S      -0.879800
      5 CB           0.9260     0.5890     0.4180 c3         1 C1S       0.066700
      6 SG          -0.6240     1.0250    -0.4320 ss         1 C1S      -0.247100
      7 SD          -1.5980    -0.7680    -0.6390 ss         1 C1S      -0.176100
      8 CE          -2.6860    -0.7890     0.8340 c3         1 C1S       0.018900
      9 CZ          -3.7740     0.2240     0.7610 c2         1 C1S      -0.138200
     10 CH          -5.0690    -0.0680     0.7190 c2         1 C1S      -0.240000
     11 OXT          3.6780     0.9410     1.0060 o          1 C1S      -0.831300
     12 H1           2.2120     0.9560    -1.2260 h1         1 C1S       0.055700
     13 H2           2.4120    -1.3460    -1.8230 hn         1 C1S       0.331300
     14 H3           1.4010    -1.7780    -0.6580 hn         1 C1S       0.331300
     15 H5           0.7010    -0.1640     1.1770 h1         1 C1S       0.074700
     16 H6           1.2310     1.4970     0.9380 h1         1 C1S       0.074700
     17 H7          -3.0870    -1.8050     0.8700 h1         1 C1S       0.070200
     18 H8          -2.0560    -0.6490     1.7140 h1         1 C1S       0.070200
     19 H9          -3.4560     1.2620     0.7420 ha         1 C1S       0.131000
     20 H11         -5.4270    -1.0910     0.7400 ha         1 C1S       0.104000
     21 H12         -5.8200     0.7080     0.6630 ha         1 C1S       0.104000
@<TRIPOS>BOND
     1     1     2 1   
     2     2     3 1   
     3     2    11 1   
     4     3     4 1   
     5     3     5 1   
     6     3    12 1   
     7     4    13 1   
     8     4    14 1   
     9     5     6 1   
    10     5    15 1   
    11     5    16 1   
    12     6     7 1   
    13     7     8 1   
    14     8     9 1   
    15     8    17 1   
    16     8    18 1   
    17     9    10 2   
    18     9    19 1   
    19    10    20 1   
    20    10    21 1   
@<TRIPOS>SUBSTRUCTURE
     1 C1S         1 TEMP              0 ****  ****    0 ROOT
