@<TRIPOS>MOLECULE
C1T
   30    30     1     0     0
SMALL
No Charge or Current Charge


@<TRIPOS>ATOM
      1 C           14.5290    49.9780  -129.3000 c          1 C1T       0.932600
      2 N           12.7780    48.0200  -129.6590 n8         1 C1T      -0.892800
      3 O           13.8700    50.9730  -129.0110 o          1 C1T      -0.821800
      4 C1          14.0670    50.7850  -134.0830 c6         1 C1T      -0.134600
      5 C2          13.6180    49.6150  -135.0010 c6         1 C1T       0.073100
      6 C3          12.7130    50.0510  -136.1910 c          1 C1T       0.542300
      7 C4          11.7120    51.1370  -135.9100 ce         1 C1T      -0.236400
      8 C5          11.8190    51.9340  -134.8010 cf         1 C1T       0.058900
      9 C6          12.9750    51.8460  -133.8280 c          1 C1T       0.539300
     10 C7          10.4880    51.1840  -136.8310 c3         1 C1T      -0.026900
     11 O8          10.8720    52.8700  -134.5480 oh         1 C1T      -0.481100
     12 O9          14.7810    48.9000  -135.4750 oh         1 C1T      -0.557800
     13 CA          13.8900    48.8670  -130.2440 c3         1 C1T       0.020500
     14 CB          13.4420    49.4790  -131.5940 c3         1 C1T       0.042700
     15 SG          14.8780    50.2090  -132.5060 ss         1 C1T      -0.151200
     16 O10         12.7200    49.4250  -137.2470 o          1 C1T      -0.546100
     17 O11         13.0670    52.6360  -132.8950 o          1 C1T      -0.485100
     18 OXT         15.6310    49.7570  -128.8050 o          1 C1T      -0.821800
     19 H           12.5360    47.2700  -130.3150 hn         1 C1T       0.329800
     20 H2          13.1260    47.5300  -128.8280 hn         1 C1T       0.329800
     21 H1          14.8410    51.3390  -134.6320 h1         1 C1T       0.105700
     22 H20         12.9790    48.9410  -134.4130 h1         1 C1T       0.066700
     23 H7           9.5770    51.4830  -136.2990 hc         1 C1T       0.044367
     24 H7A         10.6400    51.8970  -137.6490 hc         1 C1T       0.044367
     25 HO8         11.1410    53.3470  -133.7310 ho         1 C1T       0.453000
     26 HO9         14.4980    48.3980  -136.2710 ho         1 C1T       0.418000
     27 HA          14.7000    48.1620  -130.4740 h1         1 C1T       0.017700
     28 HB2         12.9980    48.6930  -132.2170 h1         1 C1T       0.045200
     29 HB3         12.6850    50.2540  -131.4220 h1         1 C1T       0.045200
     30 H13         10.2680    50.2080  -137.2820 hc         1 C1T       0.044367
@<TRIPOS>BOND
     1     1     3 1   
     2     1    13 1   
     3     1    18 1   
     4     2    13 1   
     5     2    19 1   
     6     2    20 1   
     7     4     5 1   
     8     4     9 1   
     9     4    15 1   
    10     4    21 1   
    11     5     6 1   
    12     5    12 1   
    13     5    22 1   
    14     6     7 1   
    15     6    16 2   
    16     7     8 2   
    17     7    10 1   
    18     8     9 1   
    19     8    11 1   
    20     9    17 2   
    21    10    23 1   
    22    10    24 1   
    23    10    30 1   
    24    11    25 1   
    25    12    26 1   
    26    13    14 1   
    27    13    27 1   
    28    14    15 1   
    29    14    28 1   
    30    14    29 1   
@<TRIPOS>SUBSTRUCTURE
     1 C1T         1 TEMP              0 ****  ****    0 ROOT
