@<TRIPOS>MOLECULE
C1T
   30    30     1     0     0
SMALL
bcc


@<TRIPOS>ATOM
      1 C           15.0850    49.3110  -129.4910 c          1 C1T       0.932600
      2 N           12.9670    48.0990  -129.8450 n8         1 C1T      -0.892800
      3 O           15.6810    50.3670  -129.7830 o          1 C1T      -0.821800
      4 C1          13.7560    50.9940  -133.9060 c6         1 C1T      -0.134600
      5 C2          13.4120    49.6900  -134.6310 c6         1 C1T       0.073100
      6 C3          12.6960    49.9910  -135.9380 c          1 C1T       0.542300
      7 C4          11.6390    50.9990  -135.9390 ce         1 C1T      -0.236400
      8 C5          11.5590    51.8600  -134.9010 cf         1 C1T       0.058900
      9 C6          12.5350    51.8620  -133.7720 c          1 C1T       0.539300
     10 C7          10.7230    51.0450  -137.1190 c3         1 C1T      -0.026900
     11 O8          10.6110    52.7810  -134.8290 oh         1 C1T      -0.481100
     12 O9          14.5570    48.9350  -134.8420 oh         1 C1T      -0.557800
     13 CA          14.0400    48.8140  -130.5170 c3         1 C1T       0.020500
     14 CB          13.4360    49.9680  -131.3070 c3         1 C1T       0.042700
     15 SG          14.6720    50.7960  -132.3570 ss         1 C1T      -0.151200
     16 O10         12.9760    49.3490  -136.9320 o          1 C1T      -0.546100
     17 O11         12.3190    52.5980  -132.8380 o          1 C1T      -0.485100
     18 OXT         15.2690    48.6020  -128.4840 o          1 C1T      -0.821800
     19 H           12.5180    47.4610  -130.4890 hn         1 C1T       0.329800
     20 H2          13.3780    47.5370  -129.1110 hn         1 C1T       0.329800
     21 H1          14.4430    51.5540  -134.5570 h1         1 C1T       0.105700
     22 H20         12.6800    49.1360  -134.0190 h1         1 C1T       0.066700
     23 H7           9.9000    51.7380  -136.9720 hc         1 C1T       0.044367
     24 H7A         11.2660    51.3560  -138.0130 hc         1 C1T       0.044367
     25 HO8         10.7230    53.2920  -134.0110 ho         1 C1T       0.453000
     26 HO9         14.4840    48.5380  -135.7210 ho         1 C1T       0.418000
     27 HA          14.5860    48.1760  -131.2330 h1         1 C1T       0.017700
     28 HB2         12.6380    49.5850  -131.9470 h1         1 C1T       0.045200
     29 HB3         12.9860    50.6970  -130.6320 h1         1 C1T       0.045200
     30 H13         10.3040    50.0600  -137.3270 hc         1 C1T       0.044367
@<TRIPOS>BOND
     1     1     3 1   
     2     1    13 1   
     3     1    18 1   
     4     2    13 1   
     5     2    19 1   
     6     2    20 1   
     7     4     5 1   
     8     4     9 1   
     9     4    15 1   
    10     4    21 1   
    11     5     6 1   
    12     5    12 1   
    13     5    22 1   
    14     6     7 1   
    15     6    16 2   
    16     7     8 2   
    17     7    10 1   
    18     8     9 1   
    19     8    11 1   
    20     9    17 2   
    21    10    23 1   
    22    10    24 1   
    23    10    30 1   
    24    11    25 1   
    25    12    26 1   
    26    13    14 1   
    27    13    27 1   
    28    14    15 1   
    29    14    28 1   
    30    14    29 1   
@<TRIPOS>SUBSTRUCTURE
     1 C1T         1 TEMP              0 ****  ****    0 ROOT
