@<TRIPOS>MOLECULE
C1U
   49    49     1     0     0
SMALL
No Charge or Current Charge


@<TRIPOS>ATOM
      1 CAA         10.0030    -0.5520    -0.3840 c3         1 C1U      -0.125100
      2 CAF         -1.4140     0.1840     1.4550 c2         1 C1U      -0.269200
      3 CAG         -2.2990    -0.2410     0.5240 ce         1 C1U      -0.091200
      4 CAH         -6.0860     1.6570    -0.3130 ca         1 C1U      -0.310000
      5 CAI         -3.7900     1.7660     0.4380 ca         1 C1U      -0.233000
      6 CAJ         -0.0580    -0.4330     1.7210 c3         1 C1U      -0.028200
      7 CAL          6.0900     0.0680    -0.3770 c3         1 C1U      -0.067400
      8 CAM          7.4780    -0.4600     0.0620 c3         1 C1U      -0.109400
      9 CAN          2.4180    -0.5290     1.0030 c3         1 C1U      -0.106400
     10 CAO          4.9280    -0.5350     0.4500 c3         1 C1U      -0.110400
     11 CAR         -5.0050     2.3970     0.1620 ca         1 C1U       0.161100
     12 CAS         -5.9510     0.2790    -0.5010 ca         1 C1U       0.254100
     13 CAT         -3.6370     0.3750     0.2620 ca         1 C1U       0.045200
     14 CAU         -4.7440    -0.3880    -0.2060 ca         1 C1U      -0.289600
     15 CAV          8.6580     0.0900    -0.7750 c3         1 C1U       0.166300
     16 CAW          3.5290     0.0090     0.0660 c3         1 C1U       0.165300
     17 OAB         -5.3440    -2.3790    -1.2700 o          1 C1U      -0.687500
     18 OAE          3.2310    -0.3630    -1.2840 oh         1 C1U      -0.654000
     19 OAQ         -4.0900    -2.5480     0.4690 o          1 C1U      -0.687500
     20 OAV          8.7620     1.5050    -0.5930 oh         1 C1U      -0.656000
     21 H1           9.9690    -1.6370    -0.5420 hc         1 C1U       0.038033
     22 H2          10.8170    -0.1470    -0.9970 hc         1 C1U       0.038033
     23 H3          10.2380    -0.3660     0.6710 hc         1 C1U       0.038033
     24 H4          -1.6500     1.0300     2.1020 ha         1 C1U       0.161000
     25 H5          -2.0520    -1.0980    -0.1030 ha         1 C1U       0.198000
     26 H6          -7.0290     2.1430    -0.5460 ha         1 C1U       0.104000
     27 H7          -2.9530     2.3700     0.7760 ha         1 C1U       0.108000
     28 H8           0.2560    -0.2100     2.7490 hc         1 C1U       0.036200
     29 H9          -0.1220    -1.5260     1.6460 hc         1 C1U       0.036200
     30 H10          0.7030    -0.1470    -0.2840 hc         1 C1U       0.045700
     31 H11          1.0810     1.1740     0.8210 hc         1 C1U       0.045700
     32 H12          6.0660     1.1610    -0.2810 hc         1 C1U       0.052200
     33 H13          5.9420    -0.1610    -1.4400 hc         1 C1U       0.052200
     34 H14          7.6380    -0.2240     1.1220 hc         1 C1U       0.037700
     35 H15          7.4740    -1.5540    -0.0170 hc         1 C1U       0.037700
     36 H16          2.7010    -0.3130     2.0410 hc         1 C1U       0.037200
     37 H17          2.3600    -1.6210     0.9150 hc         1 C1U       0.037200
     38 H18          4.9370    -1.6270     0.3470 hc         1 C1U       0.037700
     39 H19          5.1080    -0.3180     1.5100 hc         1 C1U       0.037700
     40 H20          8.4680    -0.1390    -1.8340 h1         1 C1U       0.070700
     41 H21          3.5520     1.1050     0.1590 h1         1 C1U       0.069700
     42 H23         -6.0430     3.9890     0.0850 ho         1 C1U       0.448000
     43 H24         -6.6270    -1.3010    -1.2280 ho         1 C1U       0.554000
     44 H25          3.2050    -1.3430    -1.3080 ho         1 C1U       0.434000
     45 H26          8.9110     1.6570     0.3640 ho         1 C1U       0.435000
     46 OAC         -5.1300     3.7380     0.3360 oh         1 C1U      -0.555100
     47 CAQ         -4.6740    -1.8860    -0.3720 c          1 C1U       0.725600
     48 CAK          1.0180     0.0810     0.7420 c3         1 C1U      -0.072400
     49 OAD         -7.0110    -0.4090    -0.9930 oh         1 C1U      -0.653100
@<TRIPOS>BOND
     1     1    15 1   
     2     1    21 1   
     3     1    22 1   
     4     1    23 1   
     5     2     3 2   
     6     2     6 1   
     7     2    24 1   
     8     3    13 1   
     9     3    25 1   
    10     4    11 ar  
    11     4    12 ar  
    12     4    26 1   
    13     5    11 ar  
    14     5    13 ar  
    15     5    27 1   
    16     6    28 1   
    17     6    29 1   
    18     6    48 1   
    19     7     8 1   
    20     7    10 1   
    21     7    32 1   
    22     7    33 1   
    23     8    15 1   
    24     8    34 1   
    25     8    35 1   
    26     9    16 1   
    27     9    36 1   
    28     9    37 1   
    29     9    48 1   
    30    10    16 1   
    31    10    38 1   
    32    10    39 1   
    33    11    46 1   
    34    12    14 ar  
    35    12    49 1   
    36    13    14 ar  
    37    14    47 1   
    38    15    20 1   
    39    15    40 1   
    40    16    18 1   
    41    16    41 1   
    42    17    47 1   
    43    18    44 1   
    44    19    47 1   
    45    20    45 1   
    46    30    48 1   
    47    31    48 1   
    48    42    46 1   
    49    43    49 1   
@<TRIPOS>SUBSTRUCTURE
     1 C1U         1 TEMP              0 ****  ****    0 ROOT
