@<TRIPOS>MOLECULE
C1U
   49    49     1     0     0
SMALL
bcc


@<TRIPOS>ATOM
      1 CAA          9.9640    -0.2670     0.0630 c3         1 C1U      -0.125100
      2 CAF         -1.3690    -0.2100     0.9850 c2         1 C1U      -0.219200
      3 CAG         -2.4260    -0.5840     0.2650 ce         1 C1U      -0.041200
      4 CAH         -5.8990     1.8810    -0.1060 ca         1 C1U      -0.328000
      5 CAI         -3.5110     1.5910     0.0260 ca         1 C1U      -0.251000
      6 CAJ         -0.0670    -0.9430     1.0400 c3         1 C1U      -0.028200
      7 CAL          6.1080     0.1720    -0.3120 c3         1 C1U      -0.067400
      8 CAM          7.4500    -0.3370     0.1990 c3         1 C1U      -0.109400
      9 CAN          2.4330    -0.7700     0.6070 c3         1 C1U      -0.106400
     10 CAO          4.9340    -0.5600     0.3270 c3         1 C1U      -0.110400
     11 CAR         -4.6250     2.4210    -0.0920 ca         1 C1U       0.161100
     12 CAS         -6.0670     0.5000     0.0100 ca         1 C1U       0.254100
     13 CAT         -3.6630     0.2150     0.1630 ca         1 C1U       0.045200
     14 CAU         -4.9500    -0.3600     0.1620 ca         1 C1U      -0.289600
     15 CAV          8.6600     0.3280    -0.4500 c3         1 C1U       0.143100
     16 CAW          3.5670    -0.0250    -0.0900 c3         1 C1U       0.142100
     17 OAB         -6.4260    -2.1960     0.2530 o          1 C1U      -0.792800
     18 OAE          3.4040    -0.0200    -1.4970 oh         1 C1U      -0.591800
     19 OAQ         -4.2840    -2.6000     0.6320 o          1 C1U      -0.792800
     20 OAV          8.6400     1.7370    -0.2950 oh         1 C1U      -0.593800
     21 H1          10.0080    -1.3390    -0.1340 hc         1 C1U       0.038033
     22 H2          10.8260     0.1980    -0.4170 hc         1 C1U       0.038033
     23 H3          10.0590    -0.1260     1.1430 hc         1 C1U       0.038033
     24 H4          -1.4260     0.6990     1.5800 ha         1 C1U       0.111000
     25 H5          -2.3800    -1.5100    -0.2940 ha         1 C1U       0.148000
     26 H6          -6.7740     2.5140    -0.2120 ha         1 C1U       0.122000
     27 H7          -2.5200     2.0250    -0.0180 ha         1 C1U       0.126000
     28 H8           0.2000    -1.1360     2.0850 hc         1 C1U       0.036200
     29 H9          -0.1620    -1.9180     0.5540 hc         1 C1U       0.036200
     30 H10          0.8580    -0.0580    -0.6890 hc         1 C1U       0.045700
     31 H11          1.0660     0.8740     0.7790 hc         1 C1U       0.045700
     32 H12          6.0180     1.2440    -0.1110 hc         1 C1U       0.052200
     33 H13          6.0680     0.0580    -1.3990 hc         1 C1U       0.052200
     34 H14          7.5080    -0.2070     1.2870 hc         1 C1U       0.037700
     35 H15          7.5200    -1.4150     0.0240 hc         1 C1U       0.037700
     36 H16          2.6390    -0.7960     1.6830 hc         1 C1U       0.037200
     37 H17          2.4310    -1.8170     0.2780 hc         1 C1U       0.037200
     38 H18          4.9950    -1.6310     0.0970 hc         1 C1U       0.037700
     39 H19          5.0100    -0.4830     1.4160 hc         1 C1U       0.037700
     40 H20          8.6020     0.1630    -1.5310 h1         1 C1U       0.070700
     41 H21          3.5130     1.0310     0.2020 h1         1 C1U       0.069700
     42 H23         -5.2340     4.2170    -0.3100 ho         1 C1U       0.409000
     43 H24         -7.1410    -1.0210     0.0810 ho         1 C1U       0.515000
     44 H25          3.4600    -0.9320    -1.8040 ho         1 C1U       0.395000
     45 H26          8.6590     1.9320     0.6480 ho         1 C1U       0.396000
     46 OAC         -4.4010     3.7440    -0.2090 oh         1 C1U      -0.516100
     47 CAQ         -5.2060    -1.8270     0.3640 c          1 C1U       0.936200
     48 CAK          1.0620    -0.1460     0.3810 c3         1 C1U      -0.072400
     49 OAD         -7.2990     0.0130    -0.0160 oh         1 C1U      -0.614100
@<TRIPOS>BOND
     1     1    15 1   
     2     1    21 1   
     3     1    22 1   
     4     1    23 1   
     5     2     3 2   
     6     2     6 1   
     7     2    24 1   
     8     3    13 1   
     9     3    25 1   
    10     4    11 ar  
    11     4    12 ar  
    12     4    26 1   
    13     5    11 ar  
    14     5    13 ar  
    15     5    27 1   
    16     6    28 1   
    17     6    29 1   
    18     6    48 1   
    19     7     8 1   
    20     7    10 1   
    21     7    32 1   
    22     7    33 1   
    23     8    15 1   
    24     8    34 1   
    25     8    35 1   
    26     9    16 1   
    27     9    36 1   
    28     9    37 1   
    29     9    48 1   
    30    10    16 1   
    31    10    38 1   
    32    10    39 1   
    33    11    46 1   
    34    12    14 ar  
    35    12    49 1   
    36    13    14 ar  
    37    14    47 1   
    38    15    20 1   
    39    15    40 1   
    40    16    18 1   
    41    16    41 1   
    42    17    47 1   
    43    18    44 1   
    44    19    47 1   
    45    20    45 1   
    46    30    48 1   
    47    31    48 1   
    48    42    46 1   
    49    43    49 1   
@<TRIPOS>SUBSTRUCTURE
     1 C1U         1 TEMP              0 ****  ****    0 ROOT
