@<TRIPOS>MOLECULE
C1V
   38    41     1     0     0
SMALL
bcc


@<TRIPOS>ATOM
      1 OAD         -1.3650     1.6560     0.3880 oh         1 C1V      -0.455100
      2 CAT         -2.4850     0.9940     0.2120 cc         1 C1V       0.337900
      3 CAZ         -2.3910    -0.4090     0.0190 cc         1 C1V      -0.199800
      4 CAU         -3.7380     1.5870     0.2200 cd         1 C1V      -0.272900
      5 CAE         -3.8600     2.9830     0.4030 ch         1 C1V       0.216500
      6 NAA         -3.9250     4.1250     0.5550 n1         1 C1V      -0.372800
      7 CAX         -4.9690     0.8430     0.0640 c          1 C1V       0.743700
      8 OAB         -6.0810     1.3450     0.0640 o          1 C1V      -0.605500
      9 NAO         -4.7960    -0.5180    -0.0810 ns         1 C1V      -0.412100
     10 CAY         -3.5810    -1.1060    -0.0950 cd         1 C1V       0.148500
     11 SAP         -3.3400    -2.7960    -0.2210 ss         1 C1V      -0.077800
     12 CAN         -1.6250    -2.5820    -0.1320 cd         1 C1V      -0.122100
     13 CAW         -1.2470    -1.2870    -0.0150 cc         1 C1V       0.037000
     14 CAS          0.1730    -0.8930     0.0390 ca         1 C1V      -0.030000
     15 CAL          1.0040    -1.4140     1.0250 ca         1 C1V      -0.106500
     16 CAJ          2.3540    -1.0970     1.0520 ca         1 C1V      -0.114000
     17 CAK          0.7260    -0.0490    -0.9230 ca         1 C1V      -0.106500
     18 CAI          2.0730     0.2630    -0.8980 ca         1 C1V      -0.114000
     19 CAR          2.9120    -0.2530     0.0930 cp         1 C1V      -0.010000
     20 CAV          4.3440     0.1070     0.1700 cp         1 C1V      -0.076000
     21 CAM          4.8800     0.5660     1.3730 ca         1 C1V      -0.082000
     22 CAG          6.2200     0.9000     1.4970 ca         1 C1V      -0.166000
     23 CAF          7.0530     0.7710     0.3950 ca         1 C1V      -0.081000
     24 CAH          6.5490     0.3110    -0.8110 ca         1 C1V      -0.226000
     25 CAQ          5.2020    -0.0240    -0.9300 ca         1 C1V       0.152100
     26 OAC          4.6890    -0.5000    -2.0820 oh         1 C1V      -0.490100
     27 HAD         -1.4970     2.6060     0.5130 ho         1 C1V       0.457000
     28 HAO         -5.6340    -1.0770    -0.1820 hn         1 C1V       0.342500
     29 HAN         -0.9840    -3.4470    -0.2050 h4         1 C1V       0.181000
     30 HAL          0.5930    -2.0700     1.7830 ha         1 C1V       0.134000
     31 HAK          0.1020     0.3630    -1.7060 ha         1 C1V       0.134000
     32 HAJ          2.9820    -1.5200     1.8260 ha         1 C1V       0.137000
     33 HAI          2.4710     0.9290    -1.6520 ha         1 C1V       0.137000
     34 HAM          4.2200     0.6740     2.2250 ha         1 C1V       0.136000
     35 HAG          6.6060     1.2600     2.4410 ha         1 C1V       0.137000
     36 HAF          8.1020     1.0270     0.4680 ha         1 C1V       0.132000
     37 HAH          7.2070     0.2020    -1.6660 ha         1 C1V       0.132000
     38 HAC          5.3780    -0.5600    -2.7530 ho         1 C1V       0.425000
@<TRIPOS>BOND
     1     1     2 1   
     2     1    27 1   
     3     2     3 1   
     4     2     4 2   
     5     3    10 2   
     6     3    13 1   
     7     4     5 1   
     8     4     7 1   
     9     5     6 3   
    10     7     8 2   
    11     7     9 1   
    12     9    10 1   
    13     9    28 1   
    14    10    11 1   
    15    11    12 1   
    16    12    13 2   
    17    12    29 1   
    18    13    14 1   
    19    14    15 ar  
    20    14    17 ar  
    21    15    16 ar  
    22    15    30 1   
    23    16    19 ar  
    24    16    32 1   
    25    17    18 ar  
    26    17    31 1   
    27    18    19 ar  
    28    18    33 1   
    29    19    20 1   
    30    20    21 ar  
    31    20    25 ar  
    32    21    22 ar  
    33    21    34 1   
    34    22    23 ar  
    35    22    35 1   
    36    23    24 ar  
    37    23    36 1   
    38    24    25 ar  
    39    24    37 1   
    40    25    26 1   
    41    26    38 1   
@<TRIPOS>SUBSTRUCTURE
     1 C1V         1 TEMP              0 ****  ****    0 ROOT
