@<TRIPOS>MOLECULE
C1V
   38    41     1     0     0
SMALL
No Charge or Current Charge


@<TRIPOS>ATOM
      1 OAD         -1.4960     1.7960     0.4750 oh         1 C1V      -0.494100
      2 CAT         -2.5760     1.0570     0.1620 cc         1 C1V       0.337900
      3 CAZ         -2.4590    -0.3860     0.1440 cc         1 C1V      -0.199800
      4 CAU         -3.8140     1.6330    -0.0680 cd         1 C1V      -0.272900
      5 CAE         -4.0410     3.0320    -0.0770 ch         1 C1V       0.305700
      6 NAA         -4.1830     4.1890    -0.0740 n1         1 C1V      -0.462000
      7 CAX         -5.0260     0.8050    -0.3070 c          1 C1V       0.601200
      8 OAB         -6.1440     1.2510    -0.5250 o          1 C1V      -0.530000
      9 NAO         -4.8090    -0.5460    -0.2490 ns         1 C1V      -0.345100
     10 CAY         -3.5890    -1.1340    -0.0240 cd         1 C1V       0.003600
     11 SAP         -3.3020    -2.8720     0.0990 ss         1 C1V       0.212000
     12 CAN         -1.5770    -2.5470     0.3350 cd         1 C1V      -0.249000
     13 CAW         -1.2910    -1.1990     0.3480 cc         1 C1V       0.037000
     14 CAS          0.1420    -0.8560     0.3180 ca         1 C1V      -0.030000
     15 CAL          1.0620    -1.5720     1.1150 ca         1 C1V      -0.088500
     16 CAJ          2.4350    -1.2750     1.0730 ca         1 C1V      -0.096000
     17 CAK          0.6450     0.1320    -0.5540 ca         1 C1V      -0.088500
     18 CAI          2.0190     0.4240    -0.5980 ca         1 C1V      -0.096000
     19 CAR          2.9430    -0.2730     0.2140 cp         1 C1V      -0.010000
     20 CAV          4.4080     0.0420     0.1910 cp         1 C1V      -0.076000
     21 CAM          5.1040     0.2060     1.4150 ca         1 C1V      -0.064000
     22 CAG          6.4760     0.5050     1.4380 ca         1 C1V      -0.148000
     23 CAF          7.1850     0.6420     0.2360 ca         1 C1V      -0.063000
     24 CAH          6.5200     0.4750    -0.9890 ca         1 C1V      -0.208000
     25 CAQ          5.1460     0.1770    -1.0200 ca         1 C1V       0.152100
     26 OAC          4.5560    -0.0060    -2.2370 oh         1 C1V      -0.529100
     27 HAD         -1.7860     2.7300     0.4810 ho         1 C1V       0.496000
     28 HAO         -5.6370    -1.1140    -0.3880 hn         1 C1V       0.342500
     29 HAN         -0.8880    -3.3800     0.3870 h4         1 C1V       0.163000
     30 HAL          0.7110    -2.3470     1.7920 ha         1 C1V       0.116000
     31 HAK         -0.0250     0.6560    -1.2300 ha         1 C1V       0.116000
     32 HAJ          3.1170    -1.8370     1.7080 ha         1 C1V       0.119000
     33 HAI          2.3710     1.2020    -1.2710 ha         1 C1V       0.119000
     34 HAM          4.5670     0.1120     2.3570 ha         1 C1V       0.118000
     35 HAG          6.9890     0.6320     2.3890 ha         1 C1V       0.119000
     36 HAF          8.2490     0.8720     0.2540 ha         1 C1V       0.114000
     37 HAH          7.0820     0.5750    -1.9150 ha         1 C1V       0.114000
     38 HAC          5.2380     0.1100    -2.9310 ho         1 C1V       0.464000
@<TRIPOS>BOND
     1     1     2 1   
     2     1    27 1   
     3     2     3 1   
     4     2     4 2   
     5     3    10 2   
     6     3    13 1   
     7     4     5 1   
     8     4     7 1   
     9     5     6 3   
    10     7     8 2   
    11     7     9 1   
    12     9    10 1   
    13     9    28 1   
    14    10    11 1   
    15    11    12 1   
    16    12    13 2   
    17    12    29 1   
    18    13    14 1   
    19    14    15 ar  
    20    14    17 ar  
    21    15    16 ar  
    22    15    30 1   
    23    16    19 ar  
    24    16    32 1   
    25    17    18 ar  
    26    17    31 1   
    27    18    19 ar  
    28    18    33 1   
    29    19    20 1   
    30    20    21 ar  
    31    20    25 ar  
    32    21    22 ar  
    33    21    34 1   
    34    22    23 ar  
    35    22    35 1   
    36    23    24 ar  
    37    23    36 1   
    38    24    25 ar  
    39    24    37 1   
    40    25    26 1   
    41    26    38 1   
@<TRIPOS>SUBSTRUCTURE
     1 C1V         1 TEMP              0 ****  ****    0 ROOT
