@<TRIPOS>MOLECULE
C1W
   36    38     1     0     0
SMALL
abcg2


@<TRIPOS>ATOM
      1 C1           6.3860    -1.7220    -0.0080 ca         1 C1W      -0.125000
      2 C2           5.6300    -2.8790    -0.0010 ca         1 C1W       0.134000
      3 C3           4.2530    -2.8350    -0.0410 ca         1 C1W      -0.125000
      4 C7           2.2390     2.6810    -0.1570 ca         1 C1W      -0.141000
      5 C8           0.9230     3.0550    -0.1040 ca         1 C1W       0.190900
      6 C9           0.2750     0.9080     0.0380 ca         1 C1W       0.430900
      7 C10         -2.0540    -0.0000     0.2390 ca         1 C1W       0.264000
      8 C11         -2.8200     1.1660     0.2030 ca         1 C1W      -0.148000
      9 C12         -4.1950     1.0720     0.3200 ca         1 C1W      -0.071000
     10 C13         -4.8900    -0.1290     0.4610 ca         1 C1W      -0.126600
     11 C14         -4.0960    -1.2760     0.4910 ca         1 C1W       0.172000
     12 C15         -2.7160    -1.2200     0.3900 ca         1 C1W      -0.191000
     13 C16         -6.4150    -0.0800     0.5560 c          1 C1W       0.717600
     14 F            6.2530    -4.0690     0.0450 f          1 C1W      -0.185000
     15 C4           3.6020    -1.6090    -0.0880 ca         1 C1W      -0.126500
     16 C5           4.3400    -0.4240    -0.0940 ca         1 C1W       0.305000
     17 C            5.7350    -0.5020    -0.0530 ca         1 C1W      -0.126500
     18 N            3.8000     0.8630    -0.1470 nu         1 C1W      -0.932900
     19 C6           2.5220     1.2930    -0.1030 ca         1 C1W       0.440900
     20 N2           1.5220     0.4350    -0.0070 nb         1 C1W      -0.332000
     21 N1          -0.0790     2.1830    -0.0080 nb         1 C1W      -0.237000
     22 CL          -4.7460    -2.8760     0.6910 cl         1 C1W      -0.209000
     23 O1          -6.9080     1.0550     0.7120 o          1 C1W      -0.705000
     24 O           -7.0350    -1.1510     0.4580 o          1 C1W      -0.705000
     25 H1           7.4660    -1.7640     0.0220 ha         1 C1W       0.129000
     26 H2           3.6750    -3.7500    -0.0370 ha         1 C1W       0.129000
     27 H5           0.6560     4.1060    -0.1420 h4         1 C1W       0.030100
     28 H7          -2.3520     2.1290     0.0870 ha         1 C1W       0.131000
     29 H8          -4.7740     1.9850     0.2980 ha         1 C1W       0.140000
     30 H9          -2.1420    -2.1380     0.4300 ha         1 C1W       0.101000
     31 H3           2.5270    -1.5890    -0.1180 ha         1 C1W       0.135000
     32 H            6.3280     0.4050    -0.0550 ha         1 C1W       0.135000
     33 H4           4.4920     1.5950    -0.2060 hn         1 C1W       0.506000
     34 H6          -0.2810    -0.9950     0.1660 hn         1 C1W       0.501000
     35 CL1          3.4970     3.8560    -0.2810 cl         1 C1W      -0.205000
     36 N3          -0.6720    -0.0650     0.1400 nu         1 C1W      -0.902900
@<TRIPOS>BOND
     1     1     2 ar  
     2     1    17 ar  
     3     1    25 1   
     4     2     3 ar  
     5     2    14 1   
     6     3    15 ar  
     7     3    26 1   
     8     4     5 ar  
     9     4    19 ar  
    10     4    35 1   
    11     5    21 ar  
    12     5    27 1   
    13     6    20 ar  
    14     6    21 ar  
    15     6    36 1   
    16     7     8 ar  
    17     7    12 ar  
    18     7    36 1   
    19     8     9 ar  
    20     8    28 1   
    21     9    10 ar  
    22     9    29 1   
    23    10    11 ar  
    24    10    13 1   
    25    11    12 ar  
    26    11    22 1   
    27    12    30 1   
    28    13    23 1   
    29    13    24 1   
    30    15    16 ar  
    31    15    31 1   
    32    16    17 ar  
    33    16    18 1   
    34    17    32 1   
    35    18    19 1   
    36    18    33 1   
    37    19    20 ar  
    38    34    36 1   
@<TRIPOS>SUBSTRUCTURE
     1 C1W         1 TEMP              0 ****  ****    0 ROOT
