@<TRIPOS>MOLECULE
C1W
   36    38     1     0     0
SMALL
No Charge or Current Charge


@<TRIPOS>ATOM
      1 C1           6.3570    -1.8390     0.2860 ca         1 C1W      -0.125000
      2 C2           5.6860    -2.9370    -0.2720 ca         1 C1W       0.134000
      3 C3           4.3870    -2.7870    -0.7790 ca         1 C1W      -0.125000
      4 C7           2.2640     2.7080    -0.1160 ca         1 C1W      -0.141000
      5 C8           0.9240     3.1200    -0.0350 ca         1 C1W       0.190900
      6 C9           0.2790     0.9340     0.1770 ca         1 C1W       0.430900
      7 C10         -2.1010    -0.0170     0.3850 ca         1 C1W       0.264000
      8 C11         -2.8630     0.9420    -0.3090 ca         1 C1W      -0.148000
      9 C12         -4.2670     0.8980    -0.2730 ca         1 C1W      -0.071000
     10 C13         -4.9290    -0.1160     0.4490 ca         1 C1W      -0.126600
     11 C14         -4.1640    -1.0800     1.1360 ca         1 C1W       0.172000
     12 C15         -2.7610    -1.0290     1.0950 ca         1 C1W      -0.191000
     13 C16         -6.4300    -0.1520     0.4720 c          1 C1W       0.717600
     14 F            6.2960    -4.1410    -0.3290 f          1 C1W      -0.185000
     15 C4           3.7510    -1.5320    -0.7200 ca         1 C1W      -0.126500
     16 C5           4.4100    -0.4230    -0.1460 ca         1 C1W       0.305000
     17 C            5.7200    -0.5840     0.3430 ca         1 C1W      -0.126500
     18 N            3.8240     0.8470    -0.0800 nu         1 C1W      -0.932900
     19 C6           2.5160     1.3250    -0.0400 ca         1 C1W       0.440900
     20 N2           1.5230     0.4380     0.1240 nb         1 C1W      -0.332000
     21 N1          -0.0760     2.2310     0.1150 nb         1 C1W      -0.237000
     22 Cl          -4.9240    -2.3520     2.0930 cl         1 C1W      -0.209000
     23 O1          -7.0160     0.8340     0.8940 o          1 C1W      -0.705000
     24 O           -6.9960    -1.1190    -0.0170 o          1 C1W      -0.705000
     25 H1           7.3660    -1.9590     0.6730 ha         1 C1W       0.129000
     26 H2           3.8760    -3.6390    -1.2210 ha         1 C1W       0.129000
     27 H5           0.6460     4.1710    -0.0860 h4         1 C1W       0.030100
     28 H7          -2.3790     1.7160    -0.8960 ha         1 C1W       0.131000
     29 H8          -4.8450     1.6450    -0.8140 ha         1 C1W       0.140000
     30 H9          -2.1870    -1.7780     1.6340 ha         1 C1W       0.101000
     31 H3           2.7570    -1.4260    -1.1400 ha         1 C1W       0.135000
     32 H            6.2450     0.2620     0.7780 ha         1 C1W       0.135000
     33 H4           4.4990     1.6050     0.0160 hn         1 C1W       0.506000
     34 H6          -0.2990    -0.9230     0.6300 hn         1 C1W       0.501000
     35 Cl1          3.5610     3.8970    -0.2990 cl         1 C1W      -0.205000
     36 N3          -0.7040    -0.0250     0.3700 nu         1 C1W      -0.902900
@<TRIPOS>BOND
     1     1     2 ar  
     2     1    17 ar  
     3     1    25 1   
     4     2     3 ar  
     5     2    14 1   
     6     3    15 ar  
     7     3    26 1   
     8     4     5 ar  
     9     4    19 ar  
    10     4    35 1   
    11     5    21 ar  
    12     5    27 1   
    13     6    20 ar  
    14     6    21 ar  
    15     6    36 1   
    16     7     8 ar  
    17     7    12 ar  
    18     7    36 1   
    19     8     9 ar  
    20     8    28 1   
    21     9    10 ar  
    22     9    29 1   
    23    10    11 ar  
    24    10    13 1   
    25    11    12 ar  
    26    11    22 1   
    27    12    30 1   
    28    13    23 1   
    29    13    24 1   
    30    15    16 ar  
    31    15    31 1   
    32    16    17 ar  
    33    16    18 1   
    34    17    32 1   
    35    18    19 1   
    36    18    33 1   
    37    19    20 ar  
    38    34    36 1   
@<TRIPOS>SUBSTRUCTURE
     1 C1W         1 TEMP              0 ****  ****    0 ROOT
