@<TRIPOS>MOLECULE
C1Y
   41    43     1     0     0
SMALL
abcg2


@<TRIPOS>ATOM
      1 C4           2.1830    -0.3580    -0.2410 ca         1 C1Y       0.142800
      2 C5           3.3370     0.4340    -0.2840 ca         1 C1Y      -0.220200
      3 C6           4.4220     0.0890     0.5360 ca         1 C1Y       0.384900
      4 C20         -4.6590     0.0040     0.1790 c3         1 C1Y      -0.069400
      5 C21         -5.3450    -1.2930    -0.2360 c3         1 C1Y      -0.075400
      6 C8           1.8850     1.2810    -1.7220 cc         1 C1Y      -0.148100
      7 C22         -6.8230    -1.1000    -0.5460 c3         1 C1Y      -0.089100
      8 C3          -2.4890     1.1360     0.9510 c5         1 C1Y       0.171300
      9 C2          -1.3180     1.2430    -0.0270 c5         1 C1Y       0.125800
     10 N1          -1.0300    -0.1330    -0.3720 n3         1 C1Y      -0.689600
     11 C1          -2.3350    -0.7130    -0.6090 c5         1 C1Y       0.162800
     12 C7          -3.1920    -0.1760     0.5420 c5         1 C1Y      -0.069700
     13 C9           1.2560     0.1940    -1.1700 cd         1 C1Y      -0.259000
     14 N3           2.0820    -1.4420     0.5540 nb         1 C1Y      -0.147000
     15 N7           3.1300     1.4300    -1.1950 na         1 C1Y      -0.203700
     16 N6           5.5900     0.7620     0.5410 nv         1 C1Y      -1.072900
     17 N2           4.2960    -0.9820     1.3140 nb         1 C1Y      -0.269000
     18 C11          3.1530    -1.6760     1.2750 ca         1 C1Y       0.134900
     19 H3          -4.7460     0.7340    -0.6340 hc         1 C1Y       0.038200
     20 H4          -5.1920     0.4340     1.0340 hc         1 C1Y       0.038200
     21 H5          -4.8410    -1.7120    -1.1120 hc         1 C1Y       0.039700
     22 H6          -5.2290    -2.0320     0.5630 hc         1 C1Y       0.039700
     23 H7           1.5220     1.9680    -2.4700 h4         1 C1Y       0.213000
     24 H8          -7.3630    -0.7250     0.3260 hc         1 C1Y       0.031367
     25 H9          -6.9660    -0.3820    -1.3550 hc         1 C1Y       0.031367
     26 H10         -7.2950    -2.0350    -0.8480 hc         1 C1Y       0.031367
     27 H12         -3.1600     1.9950     0.8230 h1         1 C1Y       0.027700
     28 H13         -1.6400     1.8220    -0.9120 h1         1 C1Y       0.035200
     29 H14         -0.4510     1.7540     0.3960 h1         1 C1Y       0.035200
     30 H16         -2.7580    -0.3820    -1.5780 h1         1 C1Y       0.035200
     31 H17         -2.2820    -1.8040    -0.6350 h1         1 C1Y       0.035200
     32 H18         -3.1230    -0.8660     1.3890 hc         1 C1Y       0.084700
     33 H19          3.7820     2.1440    -1.4720 hn         1 C1Y       0.349000
     34 H20          5.6360     1.7000     0.1820 hn         1 C1Y       0.481000
     35 H21          6.2490     0.5460     1.2710 hn         1 C1Y       0.481000
     36 H22          3.1190    -2.5410     1.9310 h5         1 C1Y       0.045100
     37 C10         -0.1150    -0.3040    -1.4790 c3         1 C1Y       0.254000
     38 O3          -2.0840     1.0320     2.3010 oh         1 C1Y      -0.644000
     39 H1          -0.0710    -1.3730    -1.7120 h1         1 C1Y       0.036200
     40 H2          -0.4850     0.1970    -2.3910 h1         1 C1Y       0.036200
     41 H11         -1.7130     1.8790     2.5670 ho         1 C1Y       0.436000
@<TRIPOS>BOND
     1     1     2 ar  
     2     1    13 1   
     3     1    14 ar  
     4     2     3 ar  
     5     2    15 1   
     6     3    16 1   
     7     3    17 ar  
     8     4     5 1   
     9     4    12 1   
    10     4    19 1   
    11     4    20 1   
    12     5     7 1   
    13     5    21 1   
    14     5    22 1   
    15     6    13 2   
    16     6    15 1   
    17     6    23 1   
    18     7    24 1   
    19     7    25 1   
    20     7    26 1   
    21     8     9 1   
    22     8    12 1   
    23     8    27 1   
    24     8    38 1   
    25     9    10 1   
    26     9    28 1   
    27     9    29 1   
    28    10    11 1   
    29    10    37 1   
    30    11    12 1   
    31    11    30 1   
    32    11    31 1   
    33    12    32 1   
    34    13    37 1   
    35    14    18 ar  
    36    15    33 1   
    37    16    34 1   
    38    16    35 1   
    39    17    18 ar  
    40    18    36 1   
    41    37    39 1   
    42    37    40 1   
    43    38    41 1   
@<TRIPOS>SUBSTRUCTURE
     1 C1Y         1 TEMP              0 ****  ****    0 ROOT
