@<TRIPOS>MOLECULE
C1Y
   41    43     1     0     0
SMALL
bcc


@<TRIPOS>ATOM
      1 N4           2.1830    -0.3580    -0.2410 ca         1 C1Y       0.202800
      2 N5           3.3370     0.4340    -0.2840 cz         1 C1Y      -0.175000
      3 N6           4.4220     0.0890     0.5360 ca         1 C1Y       0.480300
      4 N20         -4.6590     0.0040     0.1790 c3         1 C1Y      -0.148000
      5 N21         -5.3450    -1.2930    -0.2360 c3         1 C1Y      -0.154000
      6 N8           1.8850     1.2810    -1.7220 cc         1 C1Y      -0.071000
      7 N22         -6.8230    -1.1000    -0.5460 c3         1 C1Y      -0.207000
      8 N3          -2.4890     1.1360     0.9510 c5         1 C1Y       0.037000
      9 N2          -1.3180     1.2430    -0.0270 c5         1 C1Y      -0.111000
     10 N1          -1.0300    -0.1330    -0.3720 n3         1 C1Y      -0.215000
     11 N1          -2.3350    -0.7130    -0.6090 c5         1 C1Y      -0.074000
     12 N7          -3.1920    -0.1760     0.5420 c5         1 C1Y      -0.109000
     13 N9           1.2560     0.1940    -1.1700 cd         1 C1Y      -0.026500
     14 N3           2.0820    -1.4420     0.5540 nb         1 C1Y      -0.486600
     15 N7           3.1300     1.4300    -1.1950 na         1 C1Y      -0.176000
     16 N6           5.5900     0.7620     0.5410 nv         1 C1Y      -0.478500
     17 N2           4.2960    -0.9820     1.3140 nb         1 C1Y      -0.608600
     18 N11          3.1530    -1.6760     1.2750 ca         1 C1Y       0.337600
     19 N3          -4.7460     0.7340    -0.6340 hn         1 C1Y       0.077500
     20 N4          -5.1920     0.4340     1.0340 hn         1 C1Y       0.077500
     21 N5          -4.8410    -1.7120    -1.1120 hn         1 C1Y       0.079000
     22 N6          -5.2290    -2.0320     0.5630 hn         1 C1Y       0.079000
     23 N7           1.5220     1.9680    -2.4700 hn         1 C1Y       0.163000
     24 N8          -7.3630    -0.7250     0.3260 hn         1 C1Y       0.070667
     25 N9          -6.9660    -0.3820    -1.3550 hn         1 C1Y       0.070667
     26 N10         -7.2950    -2.0350    -0.8480 hn         1 C1Y       0.070667
     27 N12         -3.1600     1.9950     0.8230 hn         1 C1Y       0.067000
     28 N13         -1.6400     1.8220    -0.9120 hn         1 C1Y       0.074500
     29 N14         -0.4510     1.7540     0.3960 hn         1 C1Y       0.074500
     30 N16         -2.7580    -0.3820    -1.5780 hn         1 C1Y       0.074500
     31 N17         -2.2820    -1.8040    -0.6350 hn         1 C1Y       0.074500
     32 N18         -3.1230    -0.8660     1.3890 hn         1 C1Y       0.124000
     33 N19          3.7820     2.1440    -1.4720 hn         1 C1Y       0.249000
     34 N20          5.6360     1.7000     0.1820 hn         1 C1Y       0.221000
     35 N21          6.2490     0.5460     1.2710 hn         1 C1Y       0.221000
     36 N22          3.1190    -2.5410     1.9310 hn         1 C1Y       0.182000
     37 N10         -0.1150    -0.3040    -1.4790 c3         1 C1Y      -0.105500
     38 N3          -2.0840     1.0320     2.3010 oh         1 C1Y      -0.309000
     39 N1          -0.0710    -1.3730    -1.7120 hn         1 C1Y       0.075500
     40 N2          -0.4850     0.1970    -2.3910 hn         1 C1Y       0.075500
     41 N11         -1.7130     1.8790     2.5670 hn         1 C1Y       0.196000
@<TRIPOS>BOND
     1     1     2 1   
     2     1    13 1   
     3     1    14 ar  
     4     2     3 2   
     5     2    15 1   
     6     3    16 1   
     7     3    17 ar  
     8     4     5 1   
     9     4    12 1   
    10     4    19 1   
    11     4    20 1   
    12     5     7 1   
    13     5    21 1   
    14     5    22 1   
    15     6    13 2   
    16     6    15 1   
    17     6    23 1   
    18     7    24 1   
    19     7    25 1   
    20     7    26 1   
    21     8     9 1   
    22     8    12 1   
    23     8    27 1   
    24     8    38 1   
    25     9    10 1   
    26     9    28 1   
    27     9    29 1   
    28    10    11 1   
    29    10    37 1   
    30    11    12 1   
    31    11    30 1   
    32    11    31 1   
    33    12    32 1   
    34    13    37 1   
    35    14    18 ar  
    36    15    33 1   
    37    16    34 1   
    38    16    35 1   
    39    17    18 ar  
    40    18    36 1   
    41    37    39 1   
    42    37    40 1   
    43    38    41 1   
@<TRIPOS>SUBSTRUCTURE
     1 C1Y         1 TEMP              0 ****  ****    0 ROOT
