@<TRIPOS>MOLECULE
C1Y
   41    43     1     0     0
SMALL
No Charge or Current Charge


@<TRIPOS>ATOM
      1 C4           2.2100    -0.4520    -0.3430 ca         1 C1Y       0.142800
      2 C5           3.3460     0.2800    -0.1660 ca         1 C1Y      -0.220200
      3 C6           4.3590    -0.2530     0.6400 ca         1 C1Y       0.384900
      4 C20         -4.7030    -0.0830     0.2510 c3         1 C1Y      -0.069400
      5 C21         -5.1880    -1.5430     0.0980 c3         1 C1Y      -0.075400
      6 C8           1.9950     1.5170    -1.5400 cc         1 C1Y      -0.148100
      7 C22         -6.7240    -1.6710     0.1020 c3         1 C1Y      -0.089100
      8 C3          -2.6730     1.5530     0.4510 c5         1 C1Y       0.171300
      9 C2          -1.2370     1.5230    -0.1920 c5         1 C1Y       0.125800
     10 N1          -1.0540     0.1200    -0.6490 n3         1 C1Y      -0.689600
     11 C1          -2.4130    -0.3320    -0.9990 c5         1 C1Y       0.162800
     12 C7          -3.1610     0.0800     0.2930 c5         1 C1Y      -0.069700
     13 C9           1.3540     0.3240    -1.2070 cd         1 C1Y      -0.259000
     14 N3           1.9980    -1.6620     0.2030 nb         1 C1Y      -0.147000
     15 N7           3.2430     1.4700    -0.8770 na         1 C1Y      -0.203700
     16 N6           5.5310     0.3890     0.8920 nv         1 C1Y      -1.072900
     17 N2           4.2010    -1.4610     1.2150 nb         1 C1Y      -0.269000
     18 C11          3.0270    -2.1070     0.9680 ca         1 C1Y       0.134900
     19 H3          -5.1130     0.5130    -0.5740 hc         1 C1Y       0.038200
     20 H4          -5.1320     0.3320     1.1720 hc         1 C1Y       0.038200
     21 H5          -4.8020    -1.9630    -0.8390 hc         1 C1Y       0.039700
     22 H6          -4.7780    -2.1500     0.9150 hc         1 C1Y       0.039700
     23 H7           1.6810     2.3520    -2.1610 h4         1 C1Y       0.213000
     24 H8          -7.1430    -1.2950     1.0430 hc         1 C1Y       0.031367
     25 H9          -7.1630    -1.1020    -0.7260 hc         1 C1Y       0.031367
     26 H10         -7.0190    -2.7210    -0.0100 hc         1 C1Y       0.031367
     27 H12         -3.3130     2.2240    -0.1400 h1         1 C1Y       0.027700
     28 H13         -1.1930     2.2230    -1.0380 h1         1 C1Y       0.035200
     29 H14         -0.4540     1.8150     0.5210 h1         1 C1Y       0.035200
     30 H16         -2.8050     0.1850    -1.8870 h1         1 C1Y       0.035200
     31 H17         -2.4550    -1.4150    -1.1760 h1         1 C1Y       0.035200
     32 H18         -2.8020    -0.5270     1.1330 hc         1 C1Y       0.084700
     33 H19          3.9580     2.1910    -0.9260 hn         1 C1Y       0.349000
     34 H20          5.5920     1.3880     0.7110 hn         1 C1Y       0.481000
     35 H21          6.1310     0.0260     1.6290 hn         1 C1Y       0.481000
     36 H22          2.9010    -3.0830     1.4330 h5         1 C1Y       0.045100
     37 C10         -0.0160    -0.0980    -1.6740 c3         1 C1Y       0.254000
     38 O3          -2.6750     1.9720     1.8210 oh         1 C1Y      -0.644000
     39 H1           0.0230    -1.1630    -1.9440 h1         1 C1Y       0.036200
     40 H2          -0.2650     0.4580    -2.5880 h1         1 C1Y       0.036200
     41 H11         -2.3350     2.8930     1.8370 ho         1 C1Y       0.436000
@<TRIPOS>BOND
     1     1     2 ar  
     2     1    13 1   
     3     1    14 ar  
     4     2     3 ar  
     5     2    15 1   
     6     3    16 1   
     7     3    17 ar  
     8     4     5 1   
     9     4    12 1   
    10     4    19 1   
    11     4    20 1   
    12     5     7 1   
    13     5    21 1   
    14     5    22 1   
    15     6    13 2   
    16     6    15 1   
    17     6    23 1   
    18     7    24 1   
    19     7    25 1   
    20     7    26 1   
    21     8     9 1   
    22     8    12 1   
    23     8    27 1   
    24     8    38 1   
    25     9    10 1   
    26     9    28 1   
    27     9    29 1   
    28    10    11 1   
    29    10    37 1   
    30    11    12 1   
    31    11    30 1   
    32    11    31 1   
    33    12    32 1   
    34    13    37 1   
    35    14    18 ar  
    36    15    33 1   
    37    16    34 1   
    38    16    35 1   
    39    17    18 ar  
    40    18    36 1   
    41    37    39 1   
    42    37    40 1   
    43    38    41 1   
@<TRIPOS>SUBSTRUCTURE
     1 C1Y         1 TEMP              0 ****  ****    0 ROOT
