@<TRIPOS>MOLECULE
C20
   92    93     1     0     0
SMALL
abcg2


@<TRIPOS>ATOM
      1 C1           0.5050     1.2590    -7.4770 c3         1 C20      -0.178100
      2 C2           0.6530     0.2710    -6.3470 c          1 C20       0.606100
      3 O3           0.7480    -0.9310    -6.5520 o          1 C20      -0.614100
      4 N4           0.6750     0.8170    -5.1160 ns         1 C20      -0.491900
      5 C5           0.7430     0.0590    -3.8970 c3         1 C20       0.028700
      6 C6           2.1240     0.1550    -3.2090 c3         1 C20      -0.068700
      7 C7           3.2180    -0.3940    -4.1170 c3         1 C20      -0.089100
      8 C8           2.4590     1.5710    -2.7540 c3         1 C20      -0.089100
      9 C9          -0.3640     0.5250    -2.9540 c          1 C20       0.591100
     10 O10         -0.9220     1.6020    -3.0940 o          1 C20      -0.612100
     11 N11         -0.6160    -0.3290    -1.9490 ns         1 C20      -0.496900
     12 C12         -1.6040    -0.1170    -0.9150 c3         1 C20       0.113700
     13 C13         -2.7790    -1.0920    -1.0890 c3         1 C20      -0.042100
     14 C14         -3.4260    -0.9400    -2.4360 ca         1 C20      -0.081300
     15 C15         -2.9910    -1.6940    -3.5230 ca         1 C20      -0.103000
     16 C16         -3.5480    -1.5170    -4.7820 ca         1 C20      -0.106500
     17 C17         -4.5570    -0.5820    -4.9720 ca         1 C20      -0.109000
     18 C18         -5.0020     0.1730    -3.8940 ca         1 C20      -0.106500
     19 C19         -4.4370    -0.0050    -2.6390 ca         1 C20      -0.103000
     20 C20         -0.9610    -0.2230     0.4670 c3         1 C20       0.171300
     21 O21         -0.4260    -1.5140     0.6090 oh         1 C20      -0.672000
     22 C22          0.1240     0.8380     0.6320 c3         1 C20       0.112800
     23 N23          0.9050     0.6170     1.8350 n3         1 C20      -0.489600
     24 C24          2.2530     1.1750     1.7830 c3         1 C20       0.168800
     25 C25          3.2000     0.3390     0.9290 c6         1 C20      -0.059700
     26 C26          4.5250     1.0760     0.7370 c6         1 C20      -0.070400
     27 C27          5.5030     0.2610    -0.1020 c6         1 C20      -0.073400
     28 C28          5.7350    -1.1220     0.4960 c6         1 C20      -0.075400
     29 C29          4.4160    -1.8630     0.6930 c6         1 C20      -0.073400
     30 C30          3.4340    -1.0460     1.5260 c6         1 C20      -0.070400
     31 N31          0.2180     0.9860     2.9690 ns         1 C20      -0.383300
     32 C32         -0.2140     0.0670     3.8490 c          1 C20       0.612100
     33 O33         -0.0900    -1.1380     3.6940 o          1 C20      -0.593100
     34 C34         -0.8840     0.6500     5.0860 c3         1 C20       0.038700
     35 N35         -2.0180    -0.1850     5.4030 ns         1 C20      -0.502900
     36 C36          0.0950     0.7950     6.2740 c3         1 C20      -0.071700
     37 C37          0.6100    -0.5360     6.8060 c3         1 C20      -0.089600
     38 C38          1.2500     1.7350     5.9430 c3         1 C20      -0.089600
     39 C39         -3.1270     0.2750     6.0070 c          1 C20       0.602100
     40 O40         -3.2750     1.4490     6.3210 o          1 C20      -0.612100
     41 C41         -4.1930    -0.7600     6.2680 c3         1 C20      -0.178100
     42 H11          0.4670     2.2950    -7.1490 hc         1 C20       0.061033
     43 H12A         1.3400     1.1450    -8.1680 hc         1 C20       0.061033
     44 H13         -0.4080     1.0400    -8.0320 hc         1 C20       0.061033
     45 HN4          0.5150     1.8080    -5.0300 hn         1 C20       0.329500
     46 H5           0.5690    -0.9900    -4.1500 h1         1 C20       0.092700
     47 H6           2.0780    -0.4890    -2.3230 hc         1 C20       0.049700
     48 H71          4.1640    -0.4470    -3.5760 hc         1 C20       0.038367
     49 H72          2.9800    -1.3970    -4.4750 hc         1 C20       0.038367
     50 H73          3.3720     0.2460    -4.9870 hc         1 C20       0.038367
     51 H81          2.4450     2.2760    -3.5870 hc         1 C20       0.038367
     52 H82          1.7740     1.9420    -1.9890 hc         1 C20       0.038367
     53 H83          3.4620     1.5990    -2.3250 hc         1 C20       0.038367
     54 HN1         -0.1340    -1.2150    -1.9440 hn         1 C20       0.326500
     55 H12         -1.9790     0.9020    -1.0270 h1         1 C20       0.082700
     56 H131        -2.4260    -2.1160    -0.9540 hc         1 C20       0.060200
     57 H132        -3.5060    -0.9000    -0.2950 hc         1 C20       0.060200
     58 H15         -2.2080    -2.4300    -3.3850 ha         1 C20       0.107500
     59 H16         -3.1970    -2.1130    -5.6150 ha         1 C20       0.112500
     60 H17         -4.9960    -0.4450    -5.9520 ha         1 C20       0.111000
     61 H18         -5.7920     0.9010    -4.0300 ha         1 C20       0.112500
     62 H19         -4.7890     0.5910    -1.8050 ha         1 C20       0.107500
     63 H20         -1.7560    -0.0420     1.2070 h1         1 C20       0.037700
     64 HO1          0.0770    -1.5200     1.4350 ho         1 C20       0.484000
     65 H221         0.8110     0.7660    -0.2110 h1         1 C20       0.055700
     66 H222        -0.3200     1.8440     0.6030 h1         1 C20       0.055700
     67 H241         2.2350     2.2150     1.4210 h1         1 C20       0.040200
     68 H242         2.6390     1.2020     2.8050 h1         1 C20       0.040200
     69 H25          2.7630     0.2060    -0.0700 hc         1 C20       0.050700
     70 H261         4.3450     2.0480     0.2680 hc         1 C20       0.043450
     71 H262         4.9700     1.2850     1.7180 hc         1 C20       0.043450
     72 H271         5.1020     0.1520    -1.1160 hc         1 C20       0.039450
     73 H272         6.4500     0.7980    -0.2020 hc         1 C20       0.039450
     74 H281         6.4050    -1.7020    -0.1430 hc         1 C20       0.039200
     75 H282         6.2390    -1.0190     1.4630 hc         1 C20       0.039200
     76 H291         3.9700    -2.0770    -0.2850 hc         1 C20       0.039450
     77 H292         4.5930    -2.8320     1.1670 hc         1 C20       0.039450
     78 H301         3.8290    -0.9280     2.5430 hc         1 C20       0.043450
     79 H302         2.4850    -1.5750     1.6210 hc         1 C20       0.043450
     80 HN3          0.0190     1.9680     3.1230 hn         1 C20       0.310500
     81 H34         -1.2610     1.6490     4.8530 h1         1 C20       0.076700
     82 HN5         -1.9470    -1.1670     5.1890 hn         1 C20       0.336500
     83 H36         -0.4990     1.2670     7.0620 hc         1 C20       0.068700
     84 H371         1.1970    -0.3690     7.7100 hc         1 C20       0.038367
     85 H372        -0.2030    -1.2130     7.0700 hc         1 C20       0.038367
     86 H373         1.2540    -1.0440     6.0870 hc         1 C20       0.038367
     87 H381         1.9600     1.2800     5.2490 hc         1 C20       0.038367
     88 H382         0.9040     2.6720     5.5020 hc         1 C20       0.038367
     89 H383         1.8000     1.9840     6.8510 hc         1 C20       0.038367
     90 H411        -4.4010    -0.8010     7.3370 hc         1 C20       0.062700
     91 H412        -5.1150    -0.4600     5.7710 hc         1 C20       0.062700
     92 H413        -3.9250    -1.7580     5.9290 hc         1 C20       0.062700
@<TRIPOS>BOND
     1     1     2 1   
     2     1    42 1   
     3     1    43 1   
     4     1    44 1   
     5     2     3 2   
     6     2     4 1   
     7     4     5 1   
     8     4    45 1   
     9     5     6 1   
    10     5     9 1   
    11     5    46 1   
    12     6     7 1   
    13     6     8 1   
    14     6    47 1   
    15     7    48 1   
    16     7    49 1   
    17     7    50 1   
    18     8    51 1   
    19     8    52 1   
    20     8    53 1   
    21     9    10 2   
    22     9    11 1   
    23    11    12 1   
    24    11    54 1   
    25    12    13 1   
    26    12    20 1   
    27    12    55 1   
    28    13    14 1   
    29    13    56 1   
    30    13    57 1   
    31    14    15 ar  
    32    14    19 ar  
    33    15    16 ar  
    34    15    58 1   
    35    16    17 ar  
    36    16    59 1   
    37    17    18 ar  
    38    17    60 1   
    39    18    19 ar  
    40    18    61 1   
    41    19    62 1   
    42    20    21 1   
    43    20    22 1   
    44    20    63 1   
    45    21    64 1   
    46    22    23 1   
    47    22    65 1   
    48    22    66 1   
    49    23    24 1   
    50    23    31 1   
    51    24    25 1   
    52    24    67 1   
    53    24    68 1   
    54    25    26 1   
    55    25    30 1   
    56    25    69 1   
    57    26    27 1   
    58    26    70 1   
    59    26    71 1   
    60    27    28 1   
    61    27    72 1   
    62    27    73 1   
    63    28    29 1   
    64    28    74 1   
    65    28    75 1   
    66    29    30 1   
    67    29    76 1   
    68    29    77 1   
    69    30    78 1   
    70    30    79 1   
    71    31    32 1   
    72    31    80 1   
    73    32    33 2   
    74    32    34 1   
    75    34    35 1   
    76    34    36 1   
    77    34    81 1   
    78    35    39 1   
    79    35    82 1   
    80    36    37 1   
    81    36    38 1   
    82    36    83 1   
    83    37    84 1   
    84    37    85 1   
    85    37    86 1   
    86    38    87 1   
    87    38    88 1   
    88    38    89 1   
    89    39    40 2   
    90    39    41 1   
    91    41    90 1   
    92    41    91 1   
    93    41    92 1   
@<TRIPOS>SUBSTRUCTURE
     1 C20         1 TEMP              0 ****  ****    0 ROOT
