@<TRIPOS>MOLECULE
C20
   92    93     1     0     0
SMALL
No Charge or Current Charge


@<TRIPOS>ATOM
      1 C1           0.9140     0.5330    -7.7320 c3         1 C20      -0.178100
      2 C2           0.8480    -0.3680    -6.5070 c          1 C20       0.606100
      3 O3           0.8680    -1.5880    -6.5870 o          1 C20      -0.614100
      4 N4           0.7570     0.2990    -5.3080 ns         1 C20      -0.491900
      5 C5           0.6810    -0.3400    -3.9720 c3         1 C20       0.028700
      6 C6           2.0820    -0.4320    -3.2860 c3         1 C20      -0.068700
      7 C7           3.0430    -1.3890    -4.0310 c3         1 C20      -0.089100
      8 C8           2.7390     0.9540    -3.0650 c3         1 C20      -0.089100
      9 C9          -0.3500     0.4110    -3.0800 c          1 C20       0.591100
     10 O10         -0.7730     1.5310    -3.3430 o          1 C20      -0.612100
     11 N11         -0.7480    -0.2750    -1.9530 ns         1 C20      -0.496900
     12 C12         -1.6900     0.2260    -0.9410 c3         1 C20       0.113700
     13 C13         -3.0650    -0.4740    -1.0790 c3         1 C20      -0.042100
     14 C14         -3.6690    -0.3260    -2.4730 ca         1 C20      -0.081300
     15 C15         -3.5590    -1.3710    -3.4120 ca         1 C20      -0.103000
     16 C16         -4.1000    -1.2260    -4.7010 ca         1 C20      -0.106500
     17 C17         -4.7570    -0.0360    -5.0580 ca         1 C20      -0.109000
     18 C18         -4.8710     1.0090    -4.1260 ca         1 C20      -0.106500
     19 C19         -4.3280     0.8640    -2.8370 ca         1 C20      -0.103000
     20 C20         -1.0870     0.1120     0.4910 c3         1 C20       0.171300
     21 O21         -0.7780    -1.2570     0.8100 oh         1 C20      -0.672000
     22 C22          0.1960     0.9730     0.6740 c3         1 C20       0.112800
     23 N23          0.9480     0.6840     1.9250 n3         1 C20      -0.489600
     24 C24          2.2930     1.3020     2.0340 c3         1 C20       0.168800
     25 C25          3.3490     0.8120     0.9930 c6         1 C20      -0.059700
     26 C26          4.7190     1.5070     1.2270 c6         1 C20      -0.070400
     27 C27          5.7800     1.0340     0.2020 c6         1 C20      -0.073400
     28 C28          5.9400    -0.5060     0.2330 c6         1 C20      -0.075400
     29 C29          4.5840    -1.2130    -0.0010 c6         1 C20      -0.073400
     30 C30          3.5160    -0.7360     1.0150 c6         1 C20      -0.070400
     31 N31          0.1690     0.9230     3.1010 ns         1 C20      -0.383300
     32 C32         -0.3250    -0.1070     3.8950 c          1 C20       0.612100
     33 O33         -0.2020    -1.2840     3.5650 o          1 C20      -0.593100
     34 C34         -1.0850     0.3380     5.1820 c3         1 C20       0.038700
     35 N35         -2.0080    -0.7410     5.6080 ns         1 C20      -0.502900
     36 C36         -0.1340     0.7450     6.3560 c3         1 C20      -0.071700
     37 C37          0.8070    -0.4030     6.8010 c3         1 C20      -0.089600
     38 C38          0.6680     2.0370     6.0700 c3         1 C20      -0.089600
     39 C39         -3.1250    -0.5680     6.3910 c          1 C20       0.602100
     40 O40         -3.4820     0.5270     6.7980 o          1 C20      -0.612100
     41 C41         -3.8880    -1.8480     6.7040 c3         1 C20      -0.178100
     42 H11          1.7520     1.2300    -7.6170 hc         1 C20       0.061033
     43 H12A         0.9820    -0.0320    -8.6690 hc         1 C20       0.061033
     44 H13          0.0490     1.2060    -7.7270 hc         1 C20       0.061033
     45 HN4          0.7040     1.3110    -5.3540 hn         1 C20       0.329500
     46 H5           0.2850    -1.3570    -4.0920 h1         1 C20       0.092700
     47 H6           1.9290    -0.8700    -2.2920 hc         1 C20       0.049700
     48 H71          3.9710    -1.5260    -3.4620 hc         1 C20       0.038367
     49 H72          2.5820    -2.3740    -4.1650 hc         1 C20       0.038367
     50 H73          3.3090    -0.9930    -5.0180 hc         1 C20       0.038367
     51 H81          2.9330     1.4580    -4.0200 hc         1 C20       0.038367
     52 H82          2.0980     1.6030    -2.4570 hc         1 C20       0.038367
     53 H83          3.6970     0.8490    -2.5420 hc         1 C20       0.038367
     54 HN1         -0.3400    -1.1890    -1.7980 hn         1 C20       0.326500
     55 H12         -1.8580     1.2960    -1.1250 h1         1 C20       0.082700
     56 H131        -2.9580    -1.5360    -0.8290 hc         1 C20       0.060200
     57 H132        -3.7520    -0.0570    -0.3330 hc         1 C20       0.060200
     58 H15         -3.0480    -2.2940    -3.1460 ha         1 C20       0.107500
     59 H16         -4.0100    -2.0350    -5.4230 ha         1 C20       0.112500
     60 H17         -5.1760     0.0760    -6.0560 ha         1 C20       0.111000
     61 H18         -5.3770     1.9310    -4.4020 ha         1 C20       0.112500
     62 H19         -4.4160     1.6800    -2.1230 ha         1 C20       0.107500
     63 H20         -1.8370     0.4860     1.2020 h1         1 C20       0.037700
     64 HO1         -0.3260    -1.2110     1.6930 ho         1 C20       0.484000
     65 H221         0.8440     0.7880    -0.1910 h1         1 C20       0.055700
     66 H222        -0.0840     2.0340     0.6380 h1         1 C20       0.055700
     67 H241         2.2050     2.3940     1.9540 h1         1 C20       0.040200
     68 H242         2.7020     1.0860     3.0300 h1         1 C20       0.040200
     69 H25          2.9890     1.1140     0.0020 hc         1 C20       0.050700
     70 H261         4.6040     2.5970     1.1560 hc         1 C20       0.043450
     71 H262         5.0760     1.2970     2.2460 hc         1 C20       0.043450
     72 H271         5.4910     1.3570    -0.8070 hc         1 C20       0.039450
     73 H272         6.7450     1.5120     0.4180 hc         1 C20       0.039450
     74 H281         6.6620    -0.8210    -0.5330 hc         1 C20       0.039200
     75 H282         6.3570    -0.8150     1.2020 hc         1 C20       0.039200
     76 H291         4.2350    -1.0140    -1.0220 hc         1 C20       0.039450
     77 H292         4.7120    -2.3010     0.0770 hc         1 C20       0.039450
     78 H301         3.7970    -1.0660     2.0250 hc         1 C20       0.043450
     79 H302         2.5590    -1.2250     0.7850 hc         1 C20       0.043450
     80 HN3         -0.0080     1.8760     3.4070 hn         1 C20       0.310500
     81 H34         -1.6930     1.2100     4.9050 h1         1 C20       0.076700
     82 HN5         -1.8060    -1.6870     5.3040 hn         1 C20       0.336500
     83 H36         -0.7750     0.9760     7.2160 hc         1 C20       0.068700
     84 H371         1.4000    -0.0970     7.6710 hc         1 C20       0.038367
     85 H372         0.2370    -1.2950     7.0840 hc         1 C20       0.038367
     86 H373         1.5020    -0.6790     5.9980 hc         1 C20       0.038367
     87 H381         1.4370     1.8720     5.3060 hc         1 C20       0.038367
     88 H382         0.0040     2.8420     5.7300 hc         1 C20       0.038367
     89 H383         1.1730     2.3820     6.9800 hc         1 C20       0.038367
     90 H411        -4.7730    -1.6700     7.3250 hc         1 C20       0.062700
     91 H412        -4.1470    -2.3480     5.7640 hc         1 C20       0.062700
     92 H413        -3.2040    -2.5660     7.1700 hc         1 C20       0.062700
@<TRIPOS>BOND
     1     1     2 1   
     2     1    42 1   
     3     1    43 1   
     4     1    44 1   
     5     2     3 2   
     6     2     4 1   
     7     4     5 1   
     8     4    45 1   
     9     5     6 1   
    10     5     9 1   
    11     5    46 1   
    12     6     7 1   
    13     6     8 1   
    14     6    47 1   
    15     7    48 1   
    16     7    49 1   
    17     7    50 1   
    18     8    51 1   
    19     8    52 1   
    20     8    53 1   
    21     9    10 2   
    22     9    11 1   
    23    11    12 1   
    24    11    54 1   
    25    12    13 1   
    26    12    20 1   
    27    12    55 1   
    28    13    14 1   
    29    13    56 1   
    30    13    57 1   
    31    14    15 ar  
    32    14    19 ar  
    33    15    16 ar  
    34    15    58 1   
    35    16    17 ar  
    36    16    59 1   
    37    17    18 ar  
    38    17    60 1   
    39    18    19 ar  
    40    18    61 1   
    41    19    62 1   
    42    20    21 1   
    43    20    22 1   
    44    20    63 1   
    45    21    64 1   
    46    22    23 1   
    47    22    65 1   
    48    22    66 1   
    49    23    24 1   
    50    23    31 1   
    51    24    25 1   
    52    24    67 1   
    53    24    68 1   
    54    25    26 1   
    55    25    30 1   
    56    25    69 1   
    57    26    27 1   
    58    26    70 1   
    59    26    71 1   
    60    27    28 1   
    61    27    72 1   
    62    27    73 1   
    63    28    29 1   
    64    28    74 1   
    65    28    75 1   
    66    29    30 1   
    67    29    76 1   
    68    29    77 1   
    69    30    78 1   
    70    30    79 1   
    71    31    32 1   
    72    31    80 1   
    73    32    33 2   
    74    32    34 1   
    75    34    35 1   
    76    34    36 1   
    77    34    81 1   
    78    35    39 1   
    79    35    82 1   
    80    36    37 1   
    81    36    38 1   
    82    36    83 1   
    83    37    84 1   
    84    37    85 1   
    85    37    86 1   
    86    38    87 1   
    87    38    88 1   
    88    38    89 1   
    89    39    40 2   
    90    39    41 1   
    91    41    90 1   
    92    41    91 1   
    93    41    92 1   
@<TRIPOS>SUBSTRUCTURE
     1 C20         1 TEMP              0 ****  ****    0 ROOT
