@<TRIPOS>MOLECULE
C21
   11    11     1     0     0
SMALL
abcg2


@<TRIPOS>ATOM
      1 O8           2.3470    -1.0870     0.0460 o          1 C21      -0.713500
      2 C6           1.6450    -0.0610     0.0400 c          1 C21       0.732600
      3 O7           2.0200     1.1280     0.0460 o          1 C21      -0.713500
      4 C4           0.1560    -0.2660     0.0240 cc         1 C21      -0.211600
      5 S5          -0.8780     1.1100     0.0150 ss         1 C21       0.192000
      6 C3          -0.5710    -1.4210     0.0140 cd         1 C21      -0.167000
      7 C2          -1.9730    -1.1940    -0.0020 cd         1 C21      -0.147000
      8 C1          -2.2850     0.1340    -0.0030 cc         1 C21      -0.318000
      9 H3          -0.1180    -2.4020     0.0170 ha         1 C21       0.132000
     10 H2          -2.7160    -1.9800    -0.0130 ha         1 C21       0.098000
     11 H1          -3.2680     0.5810    -0.0130 h4         1 C21       0.116000
@<TRIPOS>BOND
     1     1     2 1   
     2     2     3 1   
     3     2     4 1   
     4     4     5 1   
     5     4     6 2   
     6     5     8 1   
     7     6     7 1   
     8     6     9 1   
     9     7     8 2   
    10     7    10 1   
    11     8    11 1   
@<TRIPOS>SUBSTRUCTURE
     1 C21         1 TEMP              0 ****  ****    0 ROOT
