@<TRIPOS>MOLECULE
C21
   11    11     1     0     0
SMALL
No Charge or Current Charge


@<TRIPOS>ATOM
      1 O8           2.3080    -1.1020     0.0460 o          1 C21      -0.713500
      2 C6           1.6330    -0.0820     0.0400 c          1 C21       0.732600
      3 O7           2.1280     1.0350     0.0480 o          1 C21      -0.713500
      4 C4           0.1540    -0.2040     0.0240 cc         1 C21      -0.211600
      5 S5          -0.9270     1.1850     0.0140 ss         1 C21       0.192000
      6 C3          -0.5540    -1.3860     0.0130 cd         1 C21      -0.167000
      7 C2          -1.9610    -1.1960    -0.0020 cd         1 C21      -0.147000
      8 C1          -2.3350     0.1230    -0.0040 cc         1 C21      -0.318000
      9 H3          -0.0850    -2.3670     0.0170 ha         1 C21       0.132000
     10 H2          -2.6730    -2.0170    -0.0110 ha         1 C21       0.098000
     11 H1          -3.3290     0.5530    -0.0140 h4         1 C21       0.116000
@<TRIPOS>BOND
     1     1     2 1   
     2     2     3 1   
     3     2     4 1   
     4     4     5 1   
     5     4     6 2   
     6     5     8 1   
     7     6     7 1   
     8     6     9 1   
     9     7     8 2   
    10     7    10 1   
    11     8    11 1   
@<TRIPOS>SUBSTRUCTURE
     1 C21         1 TEMP              0 ****  ****    0 ROOT
