@<TRIPOS>MOLECULE
C22
   12    11     1     0     0
SMALL
No Charge or Current Charge


@<TRIPOS>ATOM
      1 C           11.1630     5.3330    -1.2980 c          1 C22       0.724000
      2 N           13.1620     5.8980     0.3160 n8         1 C22      -0.982200
      3 O           11.4150     4.6980    -2.3160 o          1 C22      -0.716500
      4 Cl           9.8280     3.5070     1.0130 cl         1 C22      -0.335000
      5 CA          11.9850     4.9920     0.0090 c3         1 C22       0.001500
      6 CB          11.0300     4.8620     1.2260 c3         1 C22       0.175600
      7 OXT         10.3560     6.2550    -1.2700 o          1 C22      -0.716500
      8 HN          13.7090     5.5050     1.0920 hn         1 C22       0.368500
      9 HNA         13.8160     5.8830    -0.4770 hn         1 C22       0.368500
     10 HA          12.4190     3.9950    -0.1540 h1         1 C22       0.017700
     11 HB          10.4680     5.7910     1.3850 h1         1 C22       0.047200
     12 HBA         11.6020     4.6350     2.1350 h1         1 C22       0.047200
@<TRIPOS>BOND
     1     1     3 1   
     2     1     5 1   
     3     1     7 1   
     4     2     5 1   
     5     2     8 1   
     6     2     9 1   
     7     4     6 1   
     8     5     6 1   
     9     5    10 1   
    10     6    11 1   
    11     6    12 1   
@<TRIPOS>SUBSTRUCTURE
     1 C22         1 TEMP              0 ****  ****    0 ROOT
