@<TRIPOS>MOLECULE
C22
   12    11     1     0     0
SMALL
bcc


@<TRIPOS>ATOM
      1 C           11.2440     5.3120    -1.2750 c          1 C22       0.934600
      2 N           13.0130     5.9100     0.3520 n8         1 C22      -0.871800
      3 O           11.2180     4.4750    -2.1950 o          1 C22      -0.821800
      4 CL           9.8100     3.5690     0.9600 cl         1 C22      -0.258400
      5 CA          12.0150     4.9010     0.0080 c3         1 C22       0.001500
      6 CB          11.0770     4.8310     1.2000 c3         1 C22       0.099000
      7 OXT         10.7220     6.4430    -1.2630 o          1 C22      -0.821800
      8 HN          13.6620     5.5230     1.0270 hn         1 C22       0.313300
      9 HNA         13.5700     6.1390    -0.4620 hn         1 C22       0.313300
     10 HA          12.4510     3.9060    -0.1500 h1         1 C22       0.017700
     11 HB          10.5670     5.7800     1.3440 h1         1 C22       0.047200
     12 HBA         11.6060     4.5650     2.1150 h1         1 C22       0.047200
@<TRIPOS>BOND
     1     1     3 1   
     2     1     5 1   
     3     1     7 1   
     4     2     5 1   
     5     2     8 1   
     6     2     9 1   
     7     4     6 1   
     8     5     6 1   
     9     5    10 1   
    10     6    11 1   
    11     6    12 1   
@<TRIPOS>SUBSTRUCTURE
     1 C22         1 TEMP              0 ****  ****    0 ROOT
