@<TRIPOS>MOLECULE
C23
   52    55     1     0     0
SMALL
bcc


@<TRIPOS>ATOM
      1 O2           2.0200    -2.4640    -0.0260 o          1 C23      -0.523100
      2 C14          2.0410    -1.2490    -0.0620 c          1 C23       0.614300
      3 C15          3.3350    -0.4710    -0.0260 c3         1 C23      -0.169400
      4 C16          4.5720    -1.3610     0.0490 c3         1 C23      -0.023100
      5 C17          5.8250    -0.5310     0.0870 ca         1 C23      -0.082300
      6 C22          6.3360    -0.0670     1.2980 ca         1 C23      -0.125000
      7 C21          7.4760     0.7260     1.3340 ca         1 C23      -0.127500
      8 C20          8.1250     1.0690     0.1550 ca         1 C23      -0.129000
      9 C19          7.6250     0.6130    -1.0580 ca         1 C23      -0.127500
     10 C18          6.4840    -0.1780    -1.0890 ca         1 C23      -0.125000
     11 C2           0.7970    -0.4800    -0.1390 cc         1 C23      -0.112100
     12 O            0.9270     0.8820    -0.2080 os         1 C23      -0.165200
     13 C3          -0.3080     1.3980    -0.2680 ca         1 C23       0.121100
     14 C13         -1.2530     0.3730    -0.2360 ca         1 C23      -0.180800
     15 C1          -0.5160    -0.8550    -0.1510 cd         1 C23       0.001600
     16 C           -1.0950    -2.2250    -0.0920 c3         1 C23      -0.037900
     17 C7          -2.6230     0.6960    -0.2900 ca         1 C23       0.221100
     18 C6          -2.9650     2.0380    -0.3680 ca         1 C23      -0.263000
     19 C5          -1.9760     3.0330    -0.3990 ca         1 C23      -0.053000
     20 C4          -0.6260     2.7460    -0.3490 ca         1 C23      -0.177000
     21 O1          -3.4740    -0.3350    -0.2760 os         1 C23      -0.316900
     22 C8          -4.8850    -0.1170    -0.2560 c6         1 C23       0.152100
     23 C12         -5.5410    -1.4100    -0.7100 c6         1 C23      -0.092400
     24 C11         -7.0560    -1.2710    -0.6350 c6         1 C23       0.161300
     25 N           -7.4540    -0.9290     0.7180 n7         1 C23      -0.807200
     26 C10         -6.8980     0.3450     1.1350 c6         1 C23       0.161300
     27 C9          -5.3770     0.2730     1.1320 c6         1 C23      -0.092400
     28 H151         3.3860     0.1750    -0.9080 hc         1 C23       0.075200
     29 H152         3.3090     0.2130     0.8300 hc         1 C23       0.075200
     30 H161         4.5200    -1.9940     0.9370 hc         1 C23       0.059200
     31 H162         4.5990    -2.0290    -0.8140 hc         1 C23       0.059200
     32 H22          5.8390    -0.3310     2.2240 ha         1 C23       0.129000
     33 H18          6.1030    -0.5310    -2.0400 ha         1 C23       0.129000
     34 H21          7.8610     1.0700     2.2850 ha         1 C23       0.129000
     35 H20          9.0160     1.6840     0.1820 ha         1 C23       0.129000
     36 H19          8.1260     0.8690    -1.9830 ha         1 C23       0.129000
     37 H4           0.1300     3.5180    -0.3720 ha         1 C23       0.153000
     38 HC1         -1.8010    -2.3070     0.7350 hc         1 C23       0.059033
     39 HC2         -1.6520    -2.4430    -1.0040 hc         1 C23       0.059033
     40 HC3         -0.3290    -2.9820     0.0290 hc         1 C23       0.059033
     41 H6          -4.0000     2.3490    -0.4090 ha         1 C23       0.138000
     42 H5          -2.2930     4.0650    -0.4620 ha         1 C23       0.132000
     43 H8          -5.1440     0.6700    -0.9750 h1         1 C23       0.042700
     44 H121        -5.2410    -1.6450    -1.7340 hc         1 C23       0.063200
     45 H122        -5.2150    -2.2330    -0.0680 hc         1 C23       0.063200
     46 H91C        -5.0460    -0.4810     1.8530 hc         1 C23       0.063200
     47 H92C        -4.9630     1.2330     1.4440 hc         1 C23       0.063200
     48 H111        -7.3810    -0.5210    -1.3750 h1         1 C23       0.032950
     49 H112        -7.5240    -2.2160    -0.9170 h1         1 C23       0.032950
     50 H           -8.4630    -0.8930     0.7750 hn         1 C23       0.359800
     51 H101        -7.2190     1.1800     0.4900 h1         1 C23       0.032950
     52 H102        -7.2500     0.5740     2.1420 h1         1 C23       0.032950
@<TRIPOS>BOND
     1     1     2 2   
     2     2     3 1   
     3     2    11 1   
     4     3     4 1   
     5     3    28 1   
     6     3    29 1   
     7     4     5 1   
     8     4    30 1   
     9     4    31 1   
    10     5     6 ar  
    11     5    10 ar  
    12     6     7 ar  
    13     6    32 1   
    14     7     8 ar  
    15     7    34 1   
    16     8     9 ar  
    17     8    35 1   
    18     9    10 ar  
    19     9    36 1   
    20    10    33 1   
    21    11    12 1   
    22    11    15 2   
    23    12    13 1   
    24    13    14 ar  
    25    13    20 ar  
    26    14    15 1   
    27    14    17 ar  
    28    15    16 1   
    29    16    38 1   
    30    16    39 1   
    31    16    40 1   
    32    17    18 ar  
    33    17    21 1   
    34    18    19 ar  
    35    18    41 1   
    36    19    20 ar  
    37    19    42 1   
    38    20    37 1   
    39    21    22 1   
    40    22    23 1   
    41    22    27 1   
    42    22    43 1   
    43    23    24 1   
    44    23    44 1   
    45    23    45 1   
    46    24    25 1   
    47    24    48 1   
    48    24    49 1   
    49    25    26 1   
    50    25    50 1   
    51    26    27 1   
    52    26    51 1   
    53    26    52 1   
    54    27    46 1   
    55    27    47 1   
@<TRIPOS>SUBSTRUCTURE
     1 C23         1 TEMP              0 ****  ****    0 ROOT
