@<TRIPOS>MOLECULE
C23
   52    55     1     0     0
SMALL
No Charge or Current Charge


@<TRIPOS>ATOM
      1 O2           1.9780    -2.4190    -0.1130 o          1 C23      -0.523100
      2 C14          2.0330    -1.1940    -0.1090 c          1 C23       0.614300
      3 C15          3.3890    -0.4710    -0.0390 c3         1 C23      -0.169400
      4 C16          4.6390    -1.3760     0.0590 c3         1 C23      -0.023100
      5 C17          5.9230    -0.5600     0.1250 ca         1 C23      -0.082300
      6 C22          6.4420    -0.1510     1.3690 ca         1 C23      -0.107000
      7 C21          7.6240     0.6080     1.4300 ca         1 C23      -0.109500
      8 C20          8.2930     0.9630     0.2460 ca         1 C23      -0.111000
      9 C19          7.7780     0.5600    -0.9980 ca         1 C23      -0.109500
     10 C18          6.5960    -0.1980    -1.0580 ca         1 C23      -0.107000
     11 C2           0.8240    -0.3240    -0.1780 cc         1 C23      -0.112100
     12 O            0.9280     1.0690    -0.2050 os         1 C23      -0.165200
     13 C3          -0.3690     1.5110    -0.3010 ca         1 C23       0.121100
     14 C13         -1.2860     0.4940    -0.3320 ca         1 C23      -0.180800
     15 C1          -0.5100    -0.7190    -0.2350 cd         1 C23       0.001600
     16 C           -1.0510    -2.1320    -0.1960 c3         1 C23      -0.037900
     17 C7          -2.6660     0.7440    -0.4470 ca         1 C23       0.221100
     18 C6          -3.0780     2.0990    -0.5290 ca         1 C23      -0.245000
     19 C5          -2.1290     3.1450    -0.4860 ca         1 C23      -0.035000
     20 C4          -0.7560     2.8530    -0.3730 ca         1 C23      -0.159000
     21 O1          -3.5480    -0.3180    -0.5130 os         1 C23      -0.340100
     22 C8          -4.9720    -0.1510    -0.3530 c6         1 C23       0.175300
     23 C12         -5.6820    -1.4680    -0.7420 c6         1 C23      -0.092400
     24 C11         -7.2060    -1.3620    -0.5080 c6         1 C23       0.161300
     25 N           -7.5030    -0.9870     0.8940 n7         1 C23      -0.862400
     26 C10         -6.8630     0.2870     1.2990 c6         1 C23       0.161300
     27 C9          -5.3310     0.2240     1.1100 c6         1 C23      -0.092400
     28 H151         3.4450     0.2090    -0.8970 hc         1 C23       0.075200
     29 H152         3.3400     0.2460     0.7890 hc         1 C23       0.075200
     30 H161         4.5540    -2.0170     0.9460 hc         1 C23       0.059200
     31 H162         4.6670    -2.0510    -0.8060 hc         1 C23       0.059200
     32 H22          5.9280    -0.4200     2.2900 ha         1 C23       0.111000
     33 H18          6.2040    -0.5040    -2.0260 ha         1 C23       0.111000
     34 H21          8.0200     0.9210     2.3930 ha         1 C23       0.111000
     35 H20          9.2070     1.5510     0.2930 ha         1 C23       0.111000
     36 H19          8.2950     0.8360    -1.9150 ha         1 C23       0.111000
     37 H4          -0.0140     3.6470    -0.3460 ha         1 C23       0.135000
     38 HC1         -2.0770    -2.1700     0.1830 hc         1 C23       0.059033
     39 HC2         -1.0430    -2.5830    -1.1950 hc         1 C23       0.059033
     40 HC3         -0.4640    -2.7720     0.4710 hc         1 C23       0.059033
     41 H6          -4.1250     2.3640    -0.6350 ha         1 C23       0.120000
     42 H5          -2.4580     4.1810    -0.5490 ha         1 C23       0.114000
     43 H8          -5.3240     0.6320    -1.0390 h1         1 C23       0.042700
     44 H121        -5.4850    -1.7010    -1.7960 hc         1 C23       0.063200
     45 H122        -5.2760    -2.3000    -0.1520 hc         1 C23       0.063200
     46 H91C        -4.9060    -0.5190     1.7980 hc         1 C23       0.063200
     47 H92C        -4.8920     1.1910     1.3830 hc         1 C23       0.063200
     48 H111        -7.6310    -0.6080    -1.1880 h1         1 C23       0.032950
     49 H112        -7.6830    -2.3260    -0.7400 h1         1 C23       0.032950
     50 H           -8.5220    -0.8980     1.0050 hn         1 C23       0.415000
     51 H101        -7.2740     1.1110     0.6970 h1         1 C23       0.032950
     52 H102        -7.0970     0.4960     2.3530 h1         1 C23       0.032950
@<TRIPOS>BOND
     1     1     2 2   
     2     2     3 1   
     3     2    11 1   
     4     3     4 1   
     5     3    28 1   
     6     3    29 1   
     7     4     5 1   
     8     4    30 1   
     9     4    31 1   
    10     5     6 ar  
    11     5    10 ar  
    12     6     7 ar  
    13     6    32 1   
    14     7     8 ar  
    15     7    34 1   
    16     8     9 ar  
    17     8    35 1   
    18     9    10 ar  
    19     9    36 1   
    20    10    33 1   
    21    11    12 1   
    22    11    15 2   
    23    12    13 1   
    24    13    14 ar  
    25    13    20 ar  
    26    14    15 1   
    27    14    17 ar  
    28    15    16 1   
    29    16    38 1   
    30    16    39 1   
    31    16    40 1   
    32    17    18 ar  
    33    17    21 1   
    34    18    19 ar  
    35    18    41 1   
    36    19    20 ar  
    37    19    42 1   
    38    20    37 1   
    39    21    22 1   
    40    22    23 1   
    41    22    27 1   
    42    22    43 1   
    43    23    24 1   
    44    23    44 1   
    45    23    45 1   
    46    24    25 1   
    47    24    48 1   
    48    24    49 1   
    49    25    26 1   
    50    25    50 1   
    51    26    27 1   
    52    26    51 1   
    53    26    52 1   
    54    27    46 1   
    55    27    47 1   
@<TRIPOS>SUBSTRUCTURE
     1 C23         1 TEMP              0 ****  ****    0 ROOT
