@<TRIPOS>MOLECULE
C24
   66    69     1     0     0
SMALL
No Charge or Current Charge


@<TRIPOS>ATOM
      1 C2           0.4390     0.1960    -6.1620 ca         1 C24       0.324000
      2 N10          0.2630     0.1620    -4.7800 nu         1 C24      -0.960200
      3 C11         -0.7930    -0.5770    -4.0260 c3         1 C24       0.195500
      4 C12         -0.7140    -0.4040    -2.5130 cc         1 C24       0.391800
      5 N16         -0.2610    -1.3410    -1.6490 nd         1 C24      -0.557100
      6 C15         -0.3730    -0.7320    -0.4000 ca         1 C24       0.051400
      7 C18         -0.0380    -1.2710     0.8510 ca         1 C24       0.007000
      8 C19         -0.2430    -0.4860     2.0150 ca         1 C24      -0.179600
      9 C40          0.1300    -1.0610     3.3630 c          1 C24       0.625700
     10 O21          1.0410    -1.8750     3.4460 o          1 C24      -0.570100
     11 N22         -0.4890    -0.5430     4.5210 n          1 C24      -0.416300
     12 C23         -1.8980    -0.2370     4.5950 ca         1 C24       0.473900
     13 C24         -2.8250    -0.6490     3.6090 ca         1 C24      -0.165000
     14 C25         -4.1670    -0.2490     3.7020 ca         1 C24      -0.058000
     15 C26         -4.5400     0.5650     4.7790 ca         1 C24      -0.179000
     16 C27         -3.5650     0.9440     5.7130 ca         1 C24       0.358900
     17 N28         -2.2730     0.5600     5.6220 nb         1 C24      -0.704000
     18 C29          0.3360    -0.4590     5.7620 c3         1 C24       0.124000
     19 C30          1.0160     0.9130     5.9320 c3         1 C24      -0.161400
     20 C31          1.8470     0.9330     7.2080 c          1 C24       0.601100
     21 O32          1.3900     1.1970     8.3120 o          1 C24      -0.498000
     22 O33          3.1430     0.5550     6.9740 os         1 C24      -0.451100
     23 C34          4.0430     0.4990     8.0930 c3         1 C24       0.167600
     24 C35          5.4130     0.0540     7.5590 c3         1 C24      -0.097100
     25 C20         -0.7460     0.8400     1.8810 ca         1 C24      -0.062000
     26 C21         -1.0750     1.3600     0.6120 ca         1 C24      -0.121000
     27 C14         -0.8750     0.5330    -0.5010 ca         1 C24      -0.062200
     28 N13         -1.0930     0.7580    -1.8270 na         1 C24      -0.163600
     29 C17         -1.6200     2.0280    -2.3540 c3         1 C24       0.067900
     30 C3           1.6380     0.6990    -6.6810 ca         1 C24      -0.195000
     31 C4           1.8490     0.7510    -8.0700 ca         1 C24      -0.033000
     32 C5           0.8620     0.2820    -8.9670 ca         1 C24      -0.193900
     33 C7           1.0820     0.3730   -10.4450 ce         1 C24       0.665800
     34 N9           1.9590     1.1210   -10.9730 n2         1 C24      -0.832100
     35 N8           0.3910    -0.4690   -11.2400 nv         1 C24      -1.072200
     36 C6          -0.3560    -0.2000    -8.4330 ca         1 C24      -0.033000
     37 C1          -0.5590    -0.2480    -7.0430 ca         1 C24      -0.195000
     38 H10N         1.0590     0.5030    -4.2350 hn         1 C24       0.480000
     39 H111        -0.7270    -1.6500    -4.2520 h1         1 C24       0.065700
     40 H112        -1.7890    -0.2440    -4.3490 h1         1 C24       0.065700
     41 H18          0.3620    -2.2800     0.9160 ha         1 C24       0.146000
     42 H24         -2.5290    -1.2990     2.7940 ha         1 C24       0.137000
     43 H25         -4.8980    -0.5660     2.9600 ha         1 C24       0.123000
     44 H26         -5.5660     0.9020     4.8960 ha         1 C24       0.128000
     45 H27         -3.8240     1.5800     6.5590 h4         1 C24       0.022100
     46 H291         1.1090    -1.2400     5.7620 h1         1 C24       0.074200
     47 H292        -0.2940    -0.6640     6.6380 h1         1 C24       0.074200
     48 H301         0.2520     1.6960     5.9840 hc         1 C24       0.085700
     49 H302         1.6730     1.0640     5.0690 hc         1 C24       0.085700
     50 H341         3.6910    -0.2200     8.8450 h1         1 C24       0.048200
     51 H342         4.1370     1.4840     8.5690 h1         1 C24       0.048200
     52 H351         6.1390    -0.0040     8.3790 hc         1 C24       0.046367
     53 H352         5.3430    -0.9350     7.0920 hc         1 C24       0.046367
     54 H353         5.7890     0.7670     6.8170 hc         1 C24       0.046367
     55 H20         -0.8710     1.4770     2.7540 ha         1 C24       0.126000
     56 H21         -1.4630     2.3700     0.5080 ha         1 C24       0.123000
     57 H171        -0.9820     2.8570    -2.0240 h1         1 C24       0.057033
     58 H172        -1.6390     2.0090    -3.4510 h1         1 C24       0.057033
     59 H173        -2.6400     2.1850    -1.9810 h1         1 C24       0.057033
     60 H3           2.4150     1.0550    -6.0100 ha         1 C24       0.114000
     61 H4           2.7900     1.1490    -8.4470 ha         1 C24       0.125000
     62 HN9          1.7820     1.1520   -11.9830 hn         1 C24       0.369400
     63 HN81         0.8300    -0.6980   -12.1240 hn         1 C24       0.456500
     64 HN82        -0.0490    -1.2490   -10.7650 hn         1 C24       0.456500
     65 H6          -1.1590    -0.5300    -9.0890 ha         1 C24       0.125000
     66 H1          -1.5030    -0.6250    -6.6610 ha         1 C24       0.114000
@<TRIPOS>BOND
     1     1     2 1   
     2     1    30 ar  
     3     1    37 ar  
     4     2     3 1   
     5     2    38 1   
     6     3     4 1   
     7     3    39 1   
     8     3    40 1   
     9     4     5 2   
    10     4    28 1   
    11     5     6 1   
    12     6     7 ar  
    13     6    27 ar  
    14     7     8 ar  
    15     7    41 1   
    16     8     9 1   
    17     8    25 ar  
    18     9    10 2   
    19     9    11 1   
    20    11    12 1   
    21    11    18 1   
    22    12    13 ar  
    23    12    17 ar  
    24    13    14 ar  
    25    13    42 1   
    26    14    15 ar  
    27    14    43 1   
    28    15    16 ar  
    29    15    44 1   
    30    16    17 ar  
    31    16    45 1   
    32    18    19 1   
    33    18    46 1   
    34    18    47 1   
    35    19    20 1   
    36    19    48 1   
    37    19    49 1   
    38    20    21 2   
    39    20    22 1   
    40    22    23 1   
    41    23    24 1   
    42    23    50 1   
    43    23    51 1   
    44    24    52 1   
    45    24    53 1   
    46    24    54 1   
    47    25    26 ar  
    48    25    55 1   
    49    26    27 ar  
    50    26    56 1   
    51    27    28 1   
    52    28    29 1   
    53    29    57 1   
    54    29    58 1   
    55    29    59 1   
    56    30    31 ar  
    57    30    60 1   
    58    31    32 ar  
    59    31    61 1   
    60    32    33 1   
    61    32    36 ar  
    62    33    34 2   
    63    33    35 1   
    64    34    62 1   
    65    35    63 1   
    66    35    64 1   
    67    36    37 ar  
    68    36    65 1   
    69    37    66 1   
@<TRIPOS>SUBSTRUCTURE
     1 C24         1 TEMP              0 ****  ****    0 ROOT
