@<TRIPOS>MOLECULE
C24
   66    69     1     0     0
SMALL
bcc


@<TRIPOS>ATOM
      1 C2           0.2890     0.0300    -6.1310 ca         1 C24       0.185600
      2 N10          0.3000    -0.0390    -4.7610 nu         1 C24      -0.766600
      3 C11         -0.7050    -0.7700    -4.0270 c3         1 C24       0.195500
      4 C12         -0.5410    -0.5520    -2.5620 cc         1 C24       0.391800
      5 N16         -0.2900    -1.5010    -1.7030 nd         1 C24      -0.557100
      6 C15         -0.2180    -0.8700    -0.4870 ca         1 C24       0.051400
      7 C18          0.0310    -1.3930     0.7770 ca         1 C24      -0.011000
      8 C19          0.0280    -0.5230     1.8560 ca         1 C24      -0.179600
      9 C40          0.3550    -1.0800     3.2000 c          1 C24       0.692700
     10 O21          1.2660    -1.8810     3.3300 o          1 C24      -0.570100
     11 N22         -0.3560    -0.6330     4.2780 n          1 C24      -0.483300
     12 C23         -1.5910     0.0380     4.1780 ca         1 C24       0.539200
     13 C24         -2.6010    -0.4380     3.3450 ca         1 C24      -0.248300
     14 C25         -3.7890     0.2670     3.2930 ca         1 C24      -0.076000
     15 C26         -3.9450     1.3940     4.0890 ca         1 C24      -0.262300
     16 C27         -2.8930     1.7550     4.9140 ca         1 C24       0.424200
     17 N28         -1.7390     1.0990     4.9540 nb         1 C24      -0.704000
     18 C29          0.1560    -0.9190     5.6160 c3         1 C24       0.124000
     19 C30          1.2730     0.0390     6.0030 c3         1 C24      -0.161400
     20 C31          1.8620    -0.2810     7.3490 c          1 C24       0.650100
     21 O32          1.4620    -1.1490     8.0870 o          1 C24      -0.547000
     22 O33          2.8820     0.5130     7.6330 os         1 C24      -0.427900
     23 C34          3.5560     0.3300     8.8890 c3         1 C24       0.144400
     24 C35          4.6610     1.3550     8.9710 c3         1 C24      -0.097100
     25 C20         -0.1740     0.8580     1.6710 ca         1 C24      -0.080000
     26 C21         -0.3960     1.3970     0.4190 ca         1 C24      -0.139000
     27 C14         -0.4300     0.5080    -0.6500 ca         1 C24      -0.062200
     28 N13         -0.6440     0.6820    -1.9890 na         1 C24      -0.134300
     29 C17         -0.9090     1.9390    -2.6530 c3         1 C24       0.038600
     30 C3           1.4170     0.5350    -6.8010 ca         1 C24      -0.213000
     31 C4           1.4330     0.6490    -8.1730 ca         1 C24      -0.051000
     32 C5           0.3380     0.2600    -8.9500 ca         1 C24      -0.193900
     33 C7           0.3940     0.4000   -10.4260 ce         1 C24       0.665800
     34 N9           1.2350     1.2160   -10.9410 n2         1 C24      -0.832100
     35 N8          -0.5190    -0.3430   -11.1250 nv         1 C24      -0.961800
     36 C6          -0.7790    -0.2360    -8.2850 ca         1 C24      -0.051000
     37 C1          -0.8110    -0.3560    -6.9040 ca         1 C24      -0.213000
     38 H10N         1.2200    -0.0480    -4.3470 hn         1 C24       0.424800
     39 H111        -0.6760    -1.8490    -4.2120 h1         1 C24       0.065700
     40 H112        -1.6990    -0.4250    -4.3260 h1         1 C24       0.065700
     41 H18          0.2030    -2.4540     0.9110 ha         1 C24       0.164000
     42 H24         -2.4660    -1.3380     2.7620 ha         1 C24       0.155000
     43 H25         -4.5910    -0.0710     2.6510 ha         1 C24       0.141000
     44 H26         -4.8600     1.9690     4.0840 ha         1 C24       0.146000
     45 H27         -2.9780     2.6150     5.5680 h4         1 C24       0.022100
     46 H291         0.5010    -1.9510     5.6440 h1         1 C24       0.074200
     47 H292        -0.6730    -0.8380     6.3160 h1         1 C24       0.074200
     48 H301         0.8930     1.0650     6.0210 hc         1 C24       0.085700
     49 H302         2.0740     0.0230     5.2600 hc         1 C24       0.085700
     50 H341         3.9600    -0.6830     8.9440 h1         1 C24       0.048200
     51 H342         2.8470     0.4540     9.7100 h1         1 C24       0.048200
     52 H351         5.1920     1.2350     9.9150 hc         1 C24       0.046367
     53 H352         5.3820     1.2320     8.1630 hc         1 C24       0.046367
     54 H353         4.2680     2.3720     8.9370 hc         1 C24       0.046367
     55 H20         -0.1370     1.5260     2.5210 ha         1 C24       0.144000
     56 H21         -0.5310     2.4630     0.2920 ha         1 C24       0.141000
     57 H171         0.0140     2.4300    -2.9550 h1         1 C24       0.057033
     58 H172        -1.5240     1.7740    -3.5330 h1         1 C24       0.057033
     59 H173        -1.4570     2.5920    -1.9770 h1         1 C24       0.057033
     60 H3           2.2850     0.8400    -6.2280 ha         1 C24       0.132000
     61 H4           2.3140     1.0410    -8.6620 ha         1 C24       0.143000
     62 HN9          1.1970     1.1860   -11.9560 hn         1 C24       0.369400
     63 HN81        -0.4010    -0.3840   -12.1250 hn         1 C24       0.401300
     64 HN82        -0.8200    -1.2180   -10.7280 hn         1 C24       0.401300
     65 H6          -1.6630    -0.5340    -8.8350 ha         1 C24       0.143000
     66 H1          -1.7050    -0.7540    -6.4420 ha         1 C24       0.132000
@<TRIPOS>BOND
     1     1     2 1   
     2     1    30 ar  
     3     1    37 ar  
     4     2     3 1   
     5     2    38 1   
     6     3     4 1   
     7     3    39 1   
     8     3    40 1   
     9     4     5 2   
    10     4    28 1   
    11     5     6 1   
    12     6     7 ar  
    13     6    27 ar  
    14     7     8 ar  
    15     7    41 1   
    16     8     9 1   
    17     8    25 ar  
    18     9    10 2   
    19     9    11 1   
    20    11    12 1   
    21    11    18 1   
    22    12    13 ar  
    23    12    17 ar  
    24    13    14 ar  
    25    13    42 1   
    26    14    15 ar  
    27    14    43 1   
    28    15    16 ar  
    29    15    44 1   
    30    16    17 ar  
    31    16    45 1   
    32    18    19 1   
    33    18    46 1   
    34    18    47 1   
    35    19    20 1   
    36    19    48 1   
    37    19    49 1   
    38    20    21 2   
    39    20    22 1   
    40    22    23 1   
    41    23    24 1   
    42    23    50 1   
    43    23    51 1   
    44    24    52 1   
    45    24    53 1   
    46    24    54 1   
    47    25    26 ar  
    48    25    55 1   
    49    26    27 ar  
    50    26    56 1   
    51    27    28 1   
    52    28    29 1   
    53    29    57 1   
    54    29    58 1   
    55    29    59 1   
    56    30    31 ar  
    57    30    60 1   
    58    31    32 ar  
    59    31    61 1   
    60    32    33 1   
    61    32    36 ar  
    62    33    34 2   
    63    33    35 1   
    64    34    62 1   
    65    35    63 1   
    66    35    64 1   
    67    36    37 ar  
    68    36    65 1   
    69    37    66 1   
@<TRIPOS>SUBSTRUCTURE
     1 C24         1 TEMP              0 ****  ****    0 ROOT
