@<TRIPOS>MOLECULE
C26
   30    29     1     0     0
SMALL
No Charge or Current Charge


@<TRIPOS>ATOM
      1 O4          -0.3130     1.2990    -3.1310 o          1 C26      -0.712867
      2 S1           0.3330    -0.0190    -3.0320 s6         1 C26       1.501300
      3 O2          -0.2230    -1.0360    -3.9360 o          1 C26      -0.712867
      4 O3           1.8020     0.0310    -3.0060 o          1 C26      -0.712867
      5 O1          -0.0790    -0.5580    -1.5360 os         1 C26      -0.604700
      6 C1           0.3440     0.2570    -0.4320 c3         1 C26       0.215600
      7 C2          -0.1340    -0.4050     0.8910 c3         1 C26      -0.057700
      8 C7          -1.6860    -0.5500     0.9730 c3         1 C26      -0.059400
      9 C8          -2.4770     0.7760     1.0500 c3         1 C26      -0.086100
     10 C3           0.4960     0.3210     2.1160 c3         1 C26      -0.077400
     11 C4           0.2070    -0.3340     3.4880 c3         1 C26      -0.074400
     12 C5           0.9520     0.3540     4.6520 c3         1 C26      -0.077400
     13 C6           0.6620    -0.2920     6.0210 c3         1 C26      -0.087100
     14 H1C1        -0.0670     1.2720    -0.5030 h1         1 C26       0.029200
     15 H1C2         1.4390     0.3380    -0.4120 h1         1 C26       0.029200
     16 H2           0.2760    -1.4230     0.8900 hc         1 C26       0.048700
     17 H7C1        -2.0410    -1.1130     0.1010 hc         1 C26       0.038700
     18 H7C2        -1.9500    -1.1670     1.8400 hc         1 C26       0.038700
     19 H8C1        -3.5540     0.5700     1.0830 hc         1 C26       0.026367
     20 H8C2        -2.2170     1.3410     1.9520 hc         1 C26       0.026367
     21 H8C3        -2.2820     1.4050     0.1740 hc         1 C26       0.026367
     22 H3C1         0.1630     1.3660     2.1370 hc         1 C26       0.034200
     23 H3C2         1.5840     0.3520     1.9760 hc         1 C26       0.034200
     24 H4C1         0.4950    -1.3920     3.4510 hc         1 C26       0.036200
     25 H4C2        -0.8690    -0.2990     3.6950 hc         1 C26       0.036200
     26 H5C1         0.6680     1.4130     4.6910 hc         1 C26       0.034200
     27 H5C2         2.0330     0.3190     4.4650 hc         1 C26       0.034200
     28 H6C1         1.2120     0.2290     6.8130 hc         1 C26       0.025367
     29 H6C2        -0.4080    -0.2410     6.2550 hc         1 C26       0.025367
     30 H6C3         0.9680    -1.3450     6.0250 hc         1 C26       0.025367
@<TRIPOS>BOND
     1     1     2 1   
     2     2     3 1   
     3     2     4 1   
     4     2     5 1   
     5     5     6 1   
     6     6     7 1   
     7     6    14 1   
     8     6    15 1   
     9     7     8 1   
    10     7    10 1   
    11     7    16 1   
    12     8     9 1   
    13     8    17 1   
    14     8    18 1   
    15     9    19 1   
    16     9    20 1   
    17     9    21 1   
    18    10    11 1   
    19    10    22 1   
    20    10    23 1   
    21    11    12 1   
    22    11    24 1   
    23    11    25 1   
    24    12    13 1   
    25    12    26 1   
    26    12    27 1   
    27    13    28 1   
    28    13    29 1   
    29    13    30 1   
@<TRIPOS>SUBSTRUCTURE
     1 C26         1 TEMP              0 ****  ****    0 ROOT
