@<TRIPOS>MOLECULE
C26
   30    29     1     0     0
SMALL
bcc


@<TRIPOS>ATOM
      1 O4          -0.3170     1.5380    -2.9530 o          1 C26      -0.712867
      2 S1           0.1890     0.1630    -2.9900 s6         1 C26       1.501300
      3 O2          -0.5760    -0.7400    -3.8480 o          1 C26      -0.712867
      4 O3           1.6430     0.0780    -3.1590 o          1 C26      -0.712867
      5 O1          -0.1250    -0.4740    -1.5160 os         1 C26      -0.581500
      6 C1           0.4080     0.1970    -0.3790 c3         1 C26       0.192400
      7 C2          -0.0460    -0.5170     0.8870 c3         1 C26      -0.057700
      8 C7          -1.5690    -0.6630     0.9750 c3         1 C26      -0.059400
      9 C8          -2.3420     0.6410     1.1270 c3         1 C26      -0.086100
     10 C3           0.5710     0.2190     2.0810 c3         1 C26      -0.077400
     11 C4           0.1830    -0.3260     3.4490 c3         1 C26      -0.074400
     12 C5           0.9140     0.3780     4.5860 c3         1 C26      -0.077400
     13 C6           0.4970    -0.1290     5.9600 c3         1 C26      -0.087100
     14 H1C1         0.0760     1.2400    -0.3620 h1         1 C26       0.029200
     15 H1C2         1.5030     0.2010    -0.4200 h1         1 C26       0.029200
     16 H2           0.3730    -1.5300     0.8670 hc         1 C26       0.048700
     17 H7C1        -1.9270    -1.1930     0.0900 hc         1 C26       0.038700
     18 H7C2        -1.8050    -1.3180     1.8170 hc         1 C26       0.038700
     19 H8C1        -3.4130     0.4450     1.1860 hc         1 C26       0.026367
     20 H8C2        -2.0600     1.1770     2.0350 hc         1 C26       0.026367
     21 H8C3        -2.1850     1.3150     0.2830 hc         1 C26       0.026367
     22 H3C1         0.3060     1.2820     2.0330 hc         1 C26       0.034200
     23 H3C2         1.6620     0.1850     1.9820 hc         1 C26       0.034200
     24 H4C1         0.3890    -1.4010     3.4920 hc         1 C26       0.036200
     25 H4C2        -0.8950    -0.2160     3.6020 hc         1 C26       0.036200
     26 H5C1         0.7270     1.4540     4.5200 hc         1 C26       0.034200
     27 H5C2         1.9940     0.2510     4.4590 hc         1 C26       0.034200
     28 H6C1         1.0250     0.3950     6.7580 hc         1 C26       0.025367
     29 H6C2        -0.5730     0.0120     6.1220 hc         1 C26       0.025367
     30 H6C3         0.7070    -1.1940     6.0680 hc         1 C26       0.025367
@<TRIPOS>BOND
     1     1     2 1   
     2     2     3 1   
     3     2     4 1   
     4     2     5 1   
     5     5     6 1   
     6     6     7 1   
     7     6    14 1   
     8     6    15 1   
     9     7     8 1   
    10     7    10 1   
    11     7    16 1   
    12     8     9 1   
    13     8    17 1   
    14     8    18 1   
    15     9    19 1   
    16     9    20 1   
    17     9    21 1   
    18    10    11 1   
    19    10    22 1   
    20    10    23 1   
    21    11    12 1   
    22    11    24 1   
    23    11    25 1   
    24    12    13 1   
    25    12    26 1   
    26    12    27 1   
    27    13    28 1   
    28    13    29 1   
    29    13    30 1   
@<TRIPOS>SUBSTRUCTURE
     1 C26         1 TEMP              0 ****  ****    0 ROOT
