@<TRIPOS>MOLECULE
C27
   51    53     1     0     0
SMALL
No Charge or Current Charge


@<TRIPOS>ATOM
      1 C1           7.9910    -1.1830     1.1110 c3         1 C27       0.149900
      2 O2           6.8130    -0.3610     1.1910 os         1 C27      -0.343100
      3 C3           5.6740    -0.6320     0.4590 ca         1 C27       0.139100
      4 C4           5.5800    -1.7330    -0.4170 ca         1 C27      -0.197000
      5 C5           4.3930    -1.9590    -1.1320 ca         1 C27      -0.075000
      6 C6           3.3000    -1.0900    -0.9750 ca         1 C27      -0.139000
      7 C7           3.3680     0.0240    -0.1020 cp         1 C27       0.002000
      8 C8           4.5770     0.2320     0.6080 ca         1 C27      -0.137000
      9 C9           2.2030     0.9510     0.0640 cp         1 C27      -0.037000
     10 C10          2.3950     2.3400     0.2720 ca         1 C27      -0.098000
     11 C11          1.3010     3.2080     0.4240 ca         1 C27      -0.111000
     12 C12         -0.0090     2.7060     0.3740 ca         1 C27      -0.102000
     13 C13         -0.2310     1.3320     0.1720 ca         1 C27      -0.080300
     14 C14         -1.6500     0.7830     0.1150 c3         1 C27      -0.033100
     15 C15         -2.1750     0.6980    -1.3410 c3         1 C27      -0.074400
     16 C16         -3.6060     0.0940    -1.5780 c6         1 C27       0.180200
     17 C17         -3.8590     0.1130    -3.1150 c3         1 C27      -0.075100
     18 C18         -4.7240     0.8780    -0.8640 c6         1 C27      -0.187400
     19 C19         -4.8440     0.5010     0.6060 c          1 C27       0.578000
     20 O20         -5.2020     1.3390     1.4220 o          1 C27      -0.536000
     21 N21         -4.4920    -0.8080     0.9740 n          1 C27      -0.383300
     22 C22         -4.5880    -1.2050     2.4060 c3         1 C27       0.074300
     23 C23         -4.0410    -1.6770    -0.0270 c2         1 C27       0.684800
     24 N24         -3.6230    -1.3190    -1.1730 n2         1 C27      -0.720900
     25 N25         -4.0780    -2.9890     0.2810 nv         1 C27      -1.021200
     26 C26          0.8700     0.4680     0.0180 ca         1 C27      -0.096000
     27 H1C1         8.7740    -0.7900     1.7710 h1         1 C27       0.040033
     28 H1C2         7.7690    -2.2130     1.4220 h1         1 C27       0.040033
     29 H1C3         8.3860    -1.2010     0.0880 h1         1 C27       0.040033
     30 H4           6.4100    -2.4200    -0.5560 ha         1 C27       0.116000
     31 H8           4.6630     1.0670     1.2970 ha         1 C27       0.129000
     32 H5           4.3190    -2.8060    -1.8110 ha         1 C27       0.111000
     33 H6           2.3960    -1.2760    -1.5490 ha         1 C27       0.118000
     34 H10          3.4000     2.7520     0.3000 ha         1 C27       0.117000
     35 H26          0.6890    -0.5940    -0.1280 ha         1 C27       0.114000
     36 H11          1.4690     4.2720     0.5780 ha         1 C27       0.114000
     37 H12         -0.8500     3.3860     0.4900 ha         1 C27       0.113000
     38 H141        -1.6760    -0.2120     0.5760 hc         1 C27       0.049200
     39 H142        -2.3120     1.4210     0.7100 hc         1 C27       0.049200
     40 H151        -2.1430     1.7120    -1.7600 hc         1 C27       0.052700
     41 H152        -1.4440     0.1200    -1.9210 hc         1 C27       0.052700
     42 H171        -3.0820    -0.4380    -3.6600 hc         1 C27       0.041700
     43 H172        -4.8220    -0.3440    -3.3720 hc         1 C27       0.041700
     44 H173        -3.8690     1.1390    -3.5040 hc         1 C27       0.041700
     45 H181        -4.6520     1.9660    -0.9850 hc         1 C27       0.081700
     46 H182        -5.6770     0.5620    -1.3080 hc         1 C27       0.081700
     47 H221        -4.6500    -0.3310     3.0660 h1         1 C27       0.051033
     48 H222        -5.4810    -1.8250     2.5580 h1         1 C27       0.051033
     49 H223        -3.6970    -1.7760     2.6980 h1         1 C27       0.051033
     50 H251        -3.8650    -3.1910     1.2470 hn         1 C27       0.471500
     51 H252        -3.5620    -3.5450    -0.3900 hn         1 C27       0.471500
@<TRIPOS>BOND
     1     1     2 1   
     2     1    27 1   
     3     1    28 1   
     4     1    29 1   
     5     2     3 1   
     6     3     4 ar  
     7     3     8 ar  
     8     4     5 ar  
     9     4    30 1   
    10     5     6 ar  
    11     5    32 1   
    12     6     7 ar  
    13     6    33 1   
    14     7     8 ar  
    15     7     9 1   
    16     8    31 1   
    17     9    10 ar  
    18     9    26 ar  
    19    10    11 ar  
    20    10    34 1   
    21    11    12 ar  
    22    11    36 1   
    23    12    13 ar  
    24    12    37 1   
    25    13    14 1   
    26    13    26 ar  
    27    14    15 1   
    28    14    38 1   
    29    14    39 1   
    30    15    16 1   
    31    15    40 1   
    32    15    41 1   
    33    16    17 1   
    34    16    18 1   
    35    16    24 1   
    36    17    42 1   
    37    17    43 1   
    38    17    44 1   
    39    18    19 1   
    40    18    45 1   
    41    18    46 1   
    42    19    20 2   
    43    19    21 1   
    44    21    22 1   
    45    21    23 1   
    46    22    47 1   
    47    22    48 1   
    48    22    49 1   
    49    23    24 2   
    50    23    25 1   
    51    25    50 1   
    52    25    51 1   
    53    26    35 1   
@<TRIPOS>SUBSTRUCTURE
     1 C27         1 TEMP              0 ****  ****    0 ROOT
