@<TRIPOS>MOLECULE
C27
   51    53     1     0     0
SMALL
bcc


@<TRIPOS>ATOM
      1 C1           7.7370    -1.2640     1.1780 c3         1 C27       0.126700
      2 O2           6.6300    -0.3870     1.2400 os         1 C27      -0.319900
      3 C3           5.5590    -0.6490     0.4660 ca         1 C27       0.139100
      4 C4           5.4720    -1.7210    -0.4180 ca         1 C27      -0.215000
      5 C5           4.3060    -1.8960    -1.1550 ca         1 C27      -0.093000
      6 C6           3.2370    -1.0280    -1.0280 ca         1 C27      -0.157000
      7 C7           3.3200     0.0530    -0.1450 cp         1 C27       0.002000
      8 C8           4.4830     0.2320     0.5940 ca         1 C27      -0.155000
      9 C9           2.1870     0.9900     0.0040 cp         1 C27      -0.037000
     10 C10          2.4000     2.3600     0.1600 ca         1 C27      -0.116000
     11 C11          1.3230     3.2230     0.2960 ca         1 C27      -0.129000
     12 C12          0.0240     2.7320     0.2830 ca         1 C27      -0.120000
     13 C13         -0.2140     1.3690     0.1350 ca         1 C27      -0.080300
     14 C14         -1.6140     0.8210     0.0950 c3         1 C27      -0.033100
     15 C15         -2.1330     0.7410    -1.3410 c3         1 C27      -0.074400
     16 C16         -3.5130     0.0870    -1.5430 c6         1 C27       0.180200
     17 C17         -3.8320     0.1420    -3.0370 c3         1 C27      -0.075100
     18 C18         -4.6180     0.8280    -0.7880 c6         1 C27      -0.187400
     19 C19         -4.7070     0.4860     0.6700 c          1 C27       0.720500
     20 O20         -5.0980     1.2760     1.5070 o          1 C27      -0.611500
     21 N21         -4.3860    -0.8100     0.9840 n          1 C27      -0.450300
     22 C22         -4.5700    -1.2880     2.3450 c3         1 C27       0.074300
     23 C23         -3.8630    -1.6650    -0.0040 c2         1 C27       0.684800
     24 N24         -3.4520    -1.3040    -1.1520 n2         1 C27      -0.720900
     25 N25         -3.8590    -2.9910     0.3330 nv         1 C27      -0.910800
     26 C26          0.8760     0.5150    -0.0070 ca         1 C27      -0.114000
     27 H1C1         8.4690    -0.8900     1.8890 h1         1 C27       0.040033
     28 H1C2         7.4650    -2.2860     1.4560 h1         1 C27       0.040033
     29 H1C3         8.1910    -1.2800     0.1830 h1         1 C27       0.040033
     30 H4           6.2850    -2.4230    -0.5450 ha         1 C27       0.134000
     31 H8           4.5610     1.0480     1.3030 ha         1 C27       0.147000
     32 H5           4.2440    -2.7270    -1.8460 ha         1 C27       0.129000
     33 H6           2.3470    -1.1760    -1.6270 ha         1 C27       0.136000
     34 H10          3.4080     2.7550     0.1580 ha         1 C27       0.135000
     35 H26          0.6990    -0.5500    -0.1050 ha         1 C27       0.132000
     36 H11          1.4970     4.2850     0.4080 ha         1 C27       0.132000
     37 H12         -0.8120     3.4140     0.3910 ha         1 C27       0.131000
     38 H141        -1.6150    -0.1740     0.5470 hc         1 C27       0.049200
     39 H142        -2.2610     1.4570     0.7040 hc         1 C27       0.049200
     40 H151        -2.1660     1.7500    -1.7640 hc         1 C27       0.052700
     41 H152        -1.4120     0.1770    -1.9400 hc         1 C27       0.052700
     42 H171        -3.0610    -0.3700    -3.6150 hc         1 C27       0.041700
     43 H172        -4.7880    -0.3390    -3.2450 hc         1 C27       0.041700
     44 H173        -3.8890     1.1750    -3.3860 hc         1 C27       0.041700
     45 H181        -4.5270     1.9100    -0.8930 hc         1 C27       0.081700
     46 H182        -5.5890     0.5510    -1.2170 hc         1 C27       0.081700
     47 H221        -4.9790    -0.4870     2.9490 h1         1 C27       0.051033
     48 H222        -5.2660    -2.1250     2.3740 h1         1 C27       0.051033
     49 H223        -3.6210    -1.5930     2.7870 h1         1 C27       0.051033
     50 H251        -3.7160    -3.2520     1.2950 hn         1 C27       0.416300
     51 H252        -3.3200    -3.5570    -0.3030 hn         1 C27       0.416300
@<TRIPOS>BOND
     1     1     2 1   
     2     1    27 1   
     3     1    28 1   
     4     1    29 1   
     5     2     3 1   
     6     3     4 ar  
     7     3     8 ar  
     8     4     5 ar  
     9     4    30 1   
    10     5     6 ar  
    11     5    32 1   
    12     6     7 ar  
    13     6    33 1   
    14     7     8 ar  
    15     7     9 1   
    16     8    31 1   
    17     9    10 ar  
    18     9    26 ar  
    19    10    11 ar  
    20    10    34 1   
    21    11    12 ar  
    22    11    36 1   
    23    12    13 ar  
    24    12    37 1   
    25    13    14 1   
    26    13    26 ar  
    27    14    15 1   
    28    14    38 1   
    29    14    39 1   
    30    15    16 1   
    31    15    40 1   
    32    15    41 1   
    33    16    17 1   
    34    16    18 1   
    35    16    24 1   
    36    17    42 1   
    37    17    43 1   
    38    17    44 1   
    39    18    19 1   
    40    18    45 1   
    41    18    46 1   
    42    19    20 2   
    43    19    21 1   
    44    21    22 1   
    45    21    23 1   
    46    22    47 1   
    47    22    48 1   
    48    22    49 1   
    49    23    24 2   
    50    23    25 1   
    51    25    50 1   
    52    25    51 1   
    53    26    35 1   
@<TRIPOS>SUBSTRUCTURE
     1 C27         1 TEMP              0 ****  ****    0 ROOT
