@<TRIPOS>MOLECULE
C28
   58    60     1     0     0
SMALL
bcc


@<TRIPOS>ATOM
      1 C2           5.5920     1.6070    -1.3340 ca         1 C28       0.151900
      2 C4           4.5610     0.1520     0.2390 ca         1 C28      -0.071000
      3 C5           3.3810     0.8820     0.1550 ca         1 C28      -0.135300
      4 C6           3.3320     1.9890    -0.6900 ca         1 C28      -0.071000
      5 C1           4.4360     2.3560    -1.4440 ca         1 C28      -0.173000
      6 C3           5.6770     0.5070    -0.5040 ca         1 C28      -0.173000
      7 C8           2.1860     0.4680     0.9790 c3         1 C28       0.181800
      8 F7           6.6650     1.9570    -2.0600 f          1 C28      -0.140900
      9 N9           0.9490     0.5520     0.2310 n7         1 C28      -0.811200
     10 C10          2.0790     1.3570     2.2150 c3         1 C28       0.662900
     11 C11          0.0090    -0.5120     0.4520 c3         1 C28       0.132500
     12 C12          0.4910    -1.8890    -0.0280 c          1 C28       0.630100
     13 C13         -1.2710    -0.2490    -0.3390 c3         1 C28      -0.247600
     14 S14         -2.1250     1.2380     0.1970 s6         1 C28       1.235900
     15 N15         -3.6650     1.0830    -0.3950 n3         1 C28      -0.723500
     16 N16         -0.0720    -2.9230     0.6230 ns         1 C28      -0.515900
     17 O17          1.2630    -1.9960    -0.9640 o          1 C28      -0.590100
     18 C18         -0.2260    -4.2120     0.0180 cx         1 C28       0.040400
     19 C19          0.9630    -5.1110    -0.0380 cx         1 C28      -0.117400
     20 C20         -0.1360    -5.3860     0.9440 cx         1 C28      -0.117400
     21 O21         -2.2230     1.1990     1.6480 o          1 C28      -0.587300
     22 F22          1.0610     0.9910     3.0070 f          1 C28      -0.232300
     23 F23          3.1930     1.2860     2.9570 f          1 C28      -0.232300
     24 F24          1.8900     2.6430     1.9110 f          1 C28      -0.232300
     25 O25         -1.5410     2.3980    -0.4520 o          1 C28      -0.587300
     26 C26         -4.5200     0.0510     0.1920 c6         1 C28       0.153300
     27 C27         -5.9600     0.3670    -0.1690 c6         1 C28       0.130900
     28 O28         -6.1400     0.4650    -1.5620 os         1 C28      -0.398600
     29 C29         -5.3210     1.4710    -2.1100 c6         1 C28       0.130900
     30 C30         -3.8510     1.2030    -1.8410 c6         1 C28       0.153300
     31 N32         -2.5040    -3.6810    -0.6720 n8         1 C28      -0.909800
     32 C31         -1.2360    -4.2410    -1.1090 c3         1 C28       0.158800
     33 H4           4.6150    -0.7130     0.8870 ha         1 C28       0.147500
     34 H6           2.4280     2.5780    -0.7780 ha         1 C28       0.147500
     35 H1           4.3970     3.2120    -2.1040 ha         1 C28       0.153500
     36 H3           6.5930    -0.0640    -0.4370 ha         1 C28       0.153500
     37 H8           2.3780    -0.5470     1.3550 h1         1 C28       0.072700
     38 HN9          1.1430     0.6330    -0.7580 hn         1 C28       0.402800
     39 H11         -0.2440    -0.5680     1.5130 h1         1 C28       0.098700
     40 H131        -1.0600    -0.1330    -1.4040 h1         1 C28       0.108700
     41 H132        -1.9640    -1.0900    -0.2280 h1         1 C28       0.108700
     42 HN16        -0.7520    -2.6970     1.3340 hn         1 C28       0.316500
     43 H191         1.0590    -5.7610    -0.8990 hc         1 C28       0.080700
     44 H192         1.9010    -4.7310     0.3430 hc         1 C28       0.080700
     45 H201         0.0580    -5.1950     1.9920 hc         1 C28       0.080700
     46 H202        -0.7990    -6.2210     0.7560 hc         1 C28       0.080700
     47 H261        -4.2540    -0.9490    -0.1770 h1         1 C28       0.063200
     48 H262        -4.4200     0.0520     1.2760 h1         1 C28       0.063200
     49 H271        -6.6070    -0.4320     0.1930 h1         1 C28       0.059200
     50 H272        -6.2590     1.3000     0.3280 h1         1 C28       0.059200
     51 H291        -5.4950     1.4900    -3.1860 h1         1 C28       0.059200
     52 H292        -5.5880     2.4550    -1.7010 h1         1 C28       0.059200
     53 H301        -3.2630     2.0340    -2.2280 h1         1 C28       0.063200
     54 H302        -3.5370     0.2890    -2.3610 h1         1 C28       0.063200
     55 H321        -3.1200    -3.5710    -1.4670 hn         1 C28       0.344800
     56 H322        -2.9670    -4.3250    -0.0430 hn         1 C28       0.344800
     57 H311        -1.3040    -5.2700    -1.4870 h1         1 C28       0.046200
     58 H312        -0.8630    -3.6340    -1.9380 h1         1 C28       0.046200
@<TRIPOS>BOND
     1     1     5 ar  
     2     1     6 ar  
     3     1     8 1   
     4     2     3 ar  
     5     2     6 ar  
     6     2    33 1   
     7     3     4 ar  
     8     3     7 1   
     9     4     5 ar  
    10     4    34 1   
    11     5    35 1   
    12     6    36 1   
    13     7     9 1   
    14     7    10 1   
    15     7    37 1   
    16     9    11 1   
    17     9    38 1   
    18    10    22 1   
    19    10    23 1   
    20    10    24 1   
    21    11    12 1   
    22    11    13 1   
    23    11    39 1   
    24    12    16 1   
    25    12    17 2   
    26    13    14 1   
    27    13    40 1   
    28    13    41 1   
    29    14    15 1   
    30    14    21 2   
    31    14    25 2   
    32    15    26 1   
    33    15    30 1   
    34    16    18 1   
    35    16    42 1   
    36    18    19 1   
    37    18    20 1   
    38    18    32 1   
    39    19    20 1   
    40    19    43 1   
    41    19    44 1   
    42    20    45 1   
    43    20    46 1   
    44    26    27 1   
    45    26    47 1   
    46    26    48 1   
    47    27    28 1   
    48    27    49 1   
    49    27    50 1   
    50    28    29 1   
    51    29    30 1   
    52    29    51 1   
    53    29    52 1   
    54    30    53 1   
    55    30    54 1   
    56    31    32 1   
    57    31    55 1   
    58    31    56 1   
    59    32    57 1   
    60    32    58 1   
@<TRIPOS>SUBSTRUCTURE
     1 C28         1 TEMP              0 ****  ****    0 ROOT
