@<TRIPOS>MOLECULE
C28
   58    60     1     0     0
SMALL
No Charge or Current Charge


@<TRIPOS>ATOM
      1 C2           5.2750     2.3580    -1.0920 ca         1 C28       0.187000
      2 C4           4.3840     0.1510    -0.5940 ca         1 C28      -0.053000
      3 C5           3.2360     0.7370    -0.0200 ca         1 C28      -0.135300
      4 C6           3.1190     2.1440     0.0090 ca         1 C28      -0.053000
      5 C1           4.1380     2.9510    -0.5260 ca         1 C28      -0.155000
      6 C3           5.4020     0.9620    -1.1280 ca         1 C28      -0.155000
      7 C8           2.1360    -0.1510     0.5660 c3         1 C28       0.181800
      8 F7           6.2540     3.1350    -1.6060 f          1 C28      -0.176000
      9 N9           0.8550     0.2160    -0.1090 n7         1 C28      -0.866400
     10 C10          2.0950    -0.0810     2.1370 c3         1 C28       0.299000
     11 C11         -0.3220    -0.6710     0.1000 c3         1 C28       0.132500
     12 C12         -0.0840    -2.1390    -0.4120 c          1 C28       0.563100
     13 C13         -1.5270    -0.0140    -0.6010 c3         1 C28      -0.358400
     14 S14         -2.1900     1.4010     0.2900 s6         1 C28       1.205100
     15 N15         -3.7040     1.7260    -0.4750 n3         1 C28      -0.723500
     16 N16         -0.1640    -3.1190     0.5600 ns         1 C28      -0.448900
     17 O17          0.1790    -2.3980    -1.5820 o          1 C28      -0.590100
     18 C18          0.0220    -4.5290     0.3260 cx         1 C28       0.040400
     19 C19          1.4310    -4.9730    -0.0010 cx         1 C28      -0.117400
     20 C20          0.8520    -5.2520     1.3650 cx         1 C28      -0.117400
     21 O21         -2.5040     0.9930     1.6640 o          1 C28      -0.516500
     22 F22          1.3760    -1.1030     2.6580 f          1 C28      -0.111000
     23 F23          3.3420    -0.1670     2.6550 f          1 C28      -0.111000
     24 F24          1.5470     1.0770     2.5770 f          1 C28      -0.111000
     25 O25         -1.3600     2.5900     0.0660 o          1 C28      -0.516500
     26 C26         -4.8160     0.7810    -0.1500 c6         1 C28       0.153300
     27 C27         -6.1660     1.2560    -0.7600 c6         1 C28       0.154100
     28 O28         -6.0280     1.4720    -2.1850 os         1 C28      -0.445000
     29 C29         -5.0120     2.4530    -2.5040 c6         1 C28       0.154100
     30 C30         -3.6340     2.0030    -1.9410 c6         1 C28       0.153300
     31 N32         -2.3860    -5.1970     0.5290 n8         1 C28      -1.020200
     32 C31         -1.1690    -5.2560    -0.3160 c3         1 C28       0.158800
     33 H4           4.4920    -0.9320    -0.6260 ha         1 C28       0.129500
     34 H6           2.2360     2.6100     0.4410 ha         1 C28       0.129500
     35 H1           4.0460     4.0340    -0.5040 ha         1 C28       0.135500
     36 H3           6.2860     0.5100    -1.5690 ha         1 C28       0.135500
     37 H8           2.3890    -1.1900     0.3110 h1         1 C28       0.072700
     38 HN9          1.0470     0.2400    -1.1190 hn         1 C28       0.458000
     39 H11         -0.5620    -0.7520     1.1700 h1         1 C28       0.098700
     40 H131        -1.2740     0.3220    -1.6110 h1         1 C28       0.108700
     41 H132        -2.3520    -0.7300    -0.6540 h1         1 C28       0.108700
     42 HN16        -0.4120    -2.8130     1.4930 hn         1 C28       0.316500
     43 H191         1.5570    -5.8130    -0.6790 hc         1 C28       0.080700
     44 H192         2.2030    -4.2110    -0.0770 hc         1 C28       0.080700
     45 H201         1.2390    -4.6790     2.2040 hc         1 C28       0.080700
     46 H202         0.5930    -6.2810     1.6010 hc         1 C28       0.080700
     47 H261        -4.5940    -0.2260    -0.5330 h1         1 C28       0.063200
     48 H262        -4.9480     0.6910     0.9380 h1         1 C28       0.063200
     49 H271        -6.9440     0.5000    -0.5830 h1         1 C28       0.059200
     50 H272        -6.4840     2.1920    -0.2800 h1         1 C28       0.059200
     51 H291        -4.9520     2.5700    -3.5950 h1         1 C28       0.059200
     52 H292        -5.2950     3.4230    -2.0700 h1         1 C28       0.059200
     53 H301        -2.8990     2.7930    -2.1530 h1         1 C28       0.063200
     54 H302        -3.3120     1.1070    -2.4920 h1         1 C28       0.063200
     55 H321        -3.1250    -5.7640     0.0950 hn         1 C28       0.400000
     56 H322        -2.1980    -5.6810     1.4150 hn         1 C28       0.400000
     57 H311        -0.9100    -6.3110    -0.4880 h1         1 C28       0.046200
     58 H312        -1.3910    -4.8010    -1.2920 h1         1 C28       0.046200
@<TRIPOS>BOND
     1     1     5 ar  
     2     1     6 ar  
     3     1     8 1   
     4     2     3 ar  
     5     2     6 ar  
     6     2    33 1   
     7     3     4 ar  
     8     3     7 1   
     9     4     5 ar  
    10     4    34 1   
    11     5    35 1   
    12     6    36 1   
    13     7     9 1   
    14     7    10 1   
    15     7    37 1   
    16     9    11 1   
    17     9    38 1   
    18    10    22 1   
    19    10    23 1   
    20    10    24 1   
    21    11    12 1   
    22    11    13 1   
    23    11    39 1   
    24    12    16 1   
    25    12    17 2   
    26    13    14 1   
    27    13    40 1   
    28    13    41 1   
    29    14    15 1   
    30    14    21 2   
    31    14    25 2   
    32    15    26 1   
    33    15    30 1   
    34    16    18 1   
    35    16    42 1   
    36    18    19 1   
    37    18    20 1   
    38    18    32 1   
    39    19    20 1   
    40    19    43 1   
    41    19    44 1   
    42    20    45 1   
    43    20    46 1   
    44    26    27 1   
    45    26    47 1   
    46    26    48 1   
    47    27    28 1   
    48    27    49 1   
    49    27    50 1   
    50    28    29 1   
    51    29    30 1   
    52    29    51 1   
    53    29    52 1   
    54    30    53 1   
    55    30    54 1   
    56    31    32 1   
    57    31    55 1   
    58    31    56 1   
    59    32    57 1   
    60    32    58 1   
@<TRIPOS>SUBSTRUCTURE
     1 C28         1 TEMP              0 ****  ****    0 ROOT
