@<TRIPOS>MOLECULE
C29
   24    25     1     0     0
SMALL
abcg2


@<TRIPOS>ATOM
      1 O14          3.5500    -1.4260    -0.0070 o          1 C29      -0.723000
      2 C12          3.2070    -0.2260     0.0160 c          1 C29       0.713600
      3 O13          3.9700     0.7610     0.0400 o          1 C29      -0.723000
      4 C7           1.7170     0.0590     0.0150 ca         1 C29      -0.131600
      5 C3           0.7940    -0.9840    -0.0090 ca         1 C29      -0.082000
      6 C1          -0.5680    -0.7510    -0.0160 ca         1 C29       0.040100
      7 O4          -1.3870    -1.8360    -0.0730 os         1 C29      -0.349100
      8 C8          -2.7350    -1.5980     0.2870 c6         1 C29       0.158600
      9 C9          -3.2520    -0.3470    -0.3860 c6         1 C29       0.174800
     10 N5          -2.4460     0.7740     0.0380 nh         1 C29      -0.803400
     11 C10         -2.9650     2.0820    -0.2770 c3         1 C29       0.211100
     12 C2          -1.0780     0.5640     0.0170 ca         1 C29       0.199000
     13 C6          -0.1440     1.6060     0.0350 ca         1 C29      -0.167000
     14 C11          1.2210     1.3570     0.0410 ca         1 C29      -0.086000
     15 H2           1.1450    -2.0090    -0.0350 ha         1 C29       0.140000
     16 H3          -3.3060    -2.4710    -0.0260 h1         1 C29       0.044200
     17 H4          -3.2480    -0.4760    -1.4780 h1         1 C29       0.029200
     18 H5          -4.0430     2.0780    -0.1190 h1         1 C29       0.022700
     19 H6          -2.5480     2.8410     0.3830 h1         1 C29       0.022700
     20 H7          -2.7730     2.3860    -1.3130 h1         1 C29       0.022700
     21 H8          -0.4820     2.6330     0.0420 ha         1 C29       0.087000
     22 H9           1.9070     2.1940     0.0550 ha         1 C29       0.126000
     23 H10         -2.8250    -1.4950     1.3730 h1         1 C29       0.044200
     24 H11         -4.2860    -0.1820    -0.0820 h1         1 C29       0.029200
@<TRIPOS>BOND
     1     1     2 1   
     2     2     3 1   
     3     2     4 1   
     4     4     5 ar  
     5     4    14 ar  
     6     5     6 ar  
     7     5    15 1   
     8     6     7 1   
     9     6    12 ar  
    10     7     8 1   
    11     8     9 1   
    12     8    16 1   
    13     8    23 1   
    14     9    10 1   
    15     9    17 1   
    16     9    24 1   
    17    10    11 1   
    18    10    12 1   
    19    11    18 1   
    20    11    19 1   
    21    11    20 1   
    22    12    13 ar  
    23    13    14 ar  
    24    13    21 1   
    25    14    22 1   
@<TRIPOS>SUBSTRUCTURE
     1 C29         1 TEMP              0 ****  ****    0 ROOT
