@<TRIPOS>MOLECULE
C29
   24    25     1     0     0
SMALL
No Charge or Current Charge


@<TRIPOS>ATOM
      1 O14          3.6590    -1.3830     0.0770 o          1 C29      -0.723000
      2 C12          3.2730    -0.2220     0.0670 c          1 C29       0.713600
      3 O13          4.0400     0.7300     0.0960 o          1 C29      -0.723000
      4 C7           1.7770     0.0470     0.0150 ca         1 C29      -0.131600
      5 C3           0.8510    -1.0200    -0.0180 ca         1 C29      -0.082000
      6 C1          -0.5320    -0.7760    -0.0580 ca         1 C29       0.040100
      7 O4          -1.3860    -1.8650    -0.0790 os         1 C29      -0.349100
      8 C8          -2.7680    -1.6490     0.2920 c6         1 C29       0.158600
      9 C9          -3.3470    -0.3700    -0.3700 c6         1 C29       0.174800
     10 N5          -2.4360     0.7960    -0.1860 nh         1 C29      -0.803400
     11 C10         -3.0220     2.1540    -0.2700 c3         1 C29       0.211100
     12 C2          -1.0330     0.5560    -0.0900 ca         1 C29       0.199000
     13 C6          -0.1060     1.6190    -0.0540 ca         1 C29      -0.167000
     14 C11          1.2770     1.3690     0.0010 ca         1 C29      -0.086000
     15 H2           1.2000    -2.0490    -0.0050 ha         1 C29       0.140000
     16 H3          -3.3620    -2.5300     0.0120 h1         1 C29       0.044200
     17 H4          -3.5000    -0.5570    -1.4430 h1         1 C29       0.029200
     18 H5          -4.1160     2.1040    -0.3540 h1         1 C29       0.022700
     19 H6          -2.7770     2.7330     0.6300 h1         1 C29       0.022700
     20 H7          -2.6370     2.6830    -1.1520 h1         1 C29       0.022700
     21 H8          -0.4430     2.6510    -0.0740 ha         1 C29       0.087000
     22 H9           1.9620     2.2140     0.0270 ha         1 C29       0.126000
     23 H10         -2.8170    -1.5390     1.3840 h1         1 C29       0.044200
     24 H11         -4.3330    -0.1630     0.0720 h1         1 C29       0.029200
@<TRIPOS>BOND
     1     1     2 1   
     2     2     3 1   
     3     2     4 1   
     4     4     5 ar  
     5     4    14 ar  
     6     5     6 ar  
     7     5    15 1   
     8     6     7 1   
     9     6    12 ar  
    10     7     8 1   
    11     8     9 1   
    12     8    16 1   
    13     8    23 1   
    14     9    10 1   
    15     9    17 1   
    16     9    24 1   
    17    10    11 1   
    18    10    12 1   
    19    11    18 1   
    20    11    19 1   
    21    11    20 1   
    22    12    13 ar  
    23    13    14 ar  
    24    13    21 1   
    25    14    22 1   
@<TRIPOS>SUBSTRUCTURE
     1 C29         1 TEMP              0 ****  ****    0 ROOT
