@<TRIPOS>MOLECULE
C2A
   17    17     1     0     0
SMALL
No Charge or Current Charge


@<TRIPOS>ATOM
      1 N            3.1180     1.2880    -0.6730 n8         1 C2A      -0.999200
      2 C            2.5880     0.6720     0.5570 c3         1 C2A       0.196100
      3 C1           1.2880    -0.0760     0.2890 ca         1 C2A      -0.079300
      4 C2           1.2830    -1.4800     0.1590 ca         1 C2A      -0.112000
      5 C3           0.0800    -2.1670    -0.0830 ca         1 C2A      -0.104000
      6 C4          -1.1260    -1.4550    -0.1970 ca         1 C2A      -0.104000
      7 C5          -1.1270    -0.0560    -0.0690 ca         1 C2A       0.117000
      8 C6           0.0740     0.6320     0.1740 ca         1 C2A      -0.080000
      9 Cl8         -2.6360     0.8360    -0.2120 cl         1 C2A      -0.210000
     10 HN1          4.0350     1.7040    -0.4680 hn         1 C2A       0.398500
     11 HN2          3.3340     0.5430    -1.3450 hn         1 C2A       0.398500
     12 HC1          3.3400    -0.0200     0.9600 h1         1 C2A       0.036700
     13 HC2          2.4150     1.4590     1.3040 h1         1 C2A       0.036700
     14 H2           2.2120    -2.0390     0.2460 ha         1 C2A       0.112000
     15 H3           0.0830    -3.2510    -0.1820 ha         1 C2A       0.116000
     16 H4          -2.0570    -1.9840    -0.3840 ha         1 C2A       0.128000
     17 H6           0.0630     1.7150     0.2690 ha         1 C2A       0.148000
@<TRIPOS>BOND
     1     1     2 1   
     2     1    10 1   
     3     1    11 1   
     4     2     3 1   
     5     2    12 1   
     6     2    13 1   
     7     3     4 ar  
     8     3     8 ar  
     9     4     5 ar  
    10     4    14 1   
    11     5     6 ar  
    12     5    15 1   
    13     6     7 ar  
    14     6    16 1   
    15     7     8 ar  
    16     7     9 1   
    17     8    17 1   
@<TRIPOS>SUBSTRUCTURE
     1 C2A         1 TEMP              0 ****  ****    0 ROOT
