@<TRIPOS>MOLECULE
C2A
   17    17     1     0     0
SMALL
abcg2


@<TRIPOS>ATOM
      1 N            2.8630     1.6400    -0.4120 n8         1 C2A      -0.999200
      2 C            2.7000     0.4560     0.4100 c3         1 C2A       0.196100
      3 C1           1.3570    -0.2000     0.2070 ca         1 C2A      -0.079300
      4 C2           1.2200    -1.5790     0.3480 ca         1 C2A      -0.112000
      5 C3          -0.0180    -2.1880     0.2010 ca         1 C2A      -0.104000
      6 C4          -1.1440    -1.4330    -0.0960 ca         1 C2A      -0.104000
      7 C5          -0.9980    -0.0630    -0.2400 ca         1 C2A       0.117000
      8 C6           0.2310     0.5610    -0.0950 ca         1 C2A      -0.080000
      9 CL8         -2.3940     0.9020    -0.6130 cl         1 C2A      -0.210000
     10 HN1          3.7160     2.1150    -0.1470 hn         1 C2A       0.398500
     11 HN2          2.9840     1.3670    -1.3790 hn         1 C2A       0.398500
     12 HC1          3.4810    -0.3020     0.2650 h1         1 C2A       0.036700
     13 HC2          2.7750     0.7630     1.4580 h1         1 C2A       0.036700
     14 H2           2.0920    -2.1830     0.5690 ha         1 C2A       0.112000
     15 H3          -0.1100    -3.2600     0.3080 ha         1 C2A       0.116000
     16 H4          -2.1100    -1.9040    -0.2180 ha         1 C2A       0.128000
     17 H6           0.3230     1.6310    -0.2220 ha         1 C2A       0.148000
@<TRIPOS>BOND
     1     1     2 1   
     2     1    10 1   
     3     1    11 1   
     4     2     3 1   
     5     2    12 1   
     6     2    13 1   
     7     3     4 ar  
     8     3     8 ar  
     9     4     5 ar  
    10     4    14 1   
    11     5     6 ar  
    12     5    15 1   
    13     6     7 ar  
    14     6    16 1   
    15     7     8 ar  
    16     7     9 1   
    17     8    17 1   
@<TRIPOS>SUBSTRUCTURE
     1 C2A         1 TEMP              0 ****  ****    0 ROOT
