@<TRIPOS>MOLECULE
C2B
   17    17     1     0     0
SMALL
No Charge or Current Charge


@<TRIPOS>ATOM
      1 N1           3.6650     0.1150    -0.8480 n8         1 C2B      -1.001200
      2 CB           2.9930     0.0240     0.4610 c3         1 C2B       0.198100
      3 CG           1.4770     0.0060     0.3100 ca         1 C2B      -0.084300
      4 CD1          0.7780    -1.2190     0.2860 ca         1 C2B      -0.093500
      5 CE1         -0.6220    -1.2340     0.1510 ca         1 C2B      -0.105500
      6 CZ          -1.3290    -0.0260     0.0400 ca         1 C2B       0.120000
      7 CE2         -0.6410     1.1980     0.0630 ca         1 C2B      -0.105500
      8 CD2          0.7600     1.2140     0.1980 ca         1 C2B      -0.093500
      9 Cl          -3.0800    -0.0450    -0.1280 cl         1 C2B      -0.209000
     10 HN11         4.6790     0.0330    -0.7070 hn         1 C2B       0.398500
     11 HN12         3.4280    -0.7210    -1.3960 hn         1 C2B       0.398500
     12 HB1          3.3270    -0.8910     0.9700 h1         1 C2B       0.036700
     13 HB2          3.2940     0.8850     1.0760 h1         1 C2B       0.036700
     14 HD1          1.3200    -2.1590     0.3720 ha         1 C2B       0.124000
     15 HE1         -1.1580    -2.1790     0.1340 ha         1 C2B       0.128500
     16 HE2         -1.1910     2.1320    -0.0240 ha         1 C2B       0.128500
     17 HD2          1.2890     2.1650     0.2130 ha         1 C2B       0.124000
@<TRIPOS>BOND
     1     1     2 1   
     2     1    10 1   
     3     1    11 1   
     4     2     3 1   
     5     2    12 1   
     6     2    13 1   
     7     3     4 ar  
     8     3     8 ar  
     9     4     5 ar  
    10     4    14 1   
    11     5     6 ar  
    12     5    15 1   
    13     6     7 ar  
    14     6     9 1   
    15     7     8 ar  
    16     7    16 1   
    17     8    17 1   
@<TRIPOS>SUBSTRUCTURE
     1 C2B         1 TEMP              0 ****  ****    0 ROOT
