@<TRIPOS>MOLECULE
C2B
   17    17     1     0     0
SMALL
bcc


@<TRIPOS>ATOM
      1 N1           3.6620     0.6760    -0.5090 n8         1 C2B      -0.890800
      2 CB           2.9700    -0.2990     0.3120 c3         1 C2B       0.198100
      3 CG           1.4700    -0.1760     0.2190 ca         1 C2B      -0.084300
      4 CD1          0.6640    -1.2600     0.5620 ca         1 C2B      -0.111500
      5 CE1         -0.7190    -1.1750     0.5220 ca         1 C2B      -0.123500
      6 CZ          -1.3070     0.0160     0.1230 ca         1 C2B       0.028400
      7 CE2         -0.5330     1.1080    -0.2310 ca         1 C2B      -0.123500
      8 CD2          0.8510     1.0040    -0.1790 ca         1 C2B      -0.111500
      9 CL          -3.0380     0.1350     0.0580 cl         1 C2B      -0.117400
     10 HN11         4.6540     0.6290    -0.3170 hn         1 C2B       0.343300
     11 HN12         3.5540     0.4400    -1.4870 hn         1 C2B       0.343300
     12 HB1          3.2450    -1.3400     0.0930 h1         1 C2B       0.036700
     13 HB2          3.2640    -0.1290     1.3520 h1         1 C2B       0.036700
     14 HD1          1.1210    -2.1940     0.8670 ha         1 C2B       0.142000
     15 HE1         -1.3270    -2.0270     0.7920 ha         1 C2B       0.146500
     16 HE2         -0.9970     2.0330    -0.5460 ha         1 C2B       0.146500
     17 HD2          1.4550     1.8570    -0.4590 ha         1 C2B       0.142000
@<TRIPOS>BOND
     1     1     2 1   
     2     1    10 1   
     3     1    11 1   
     4     2     3 1   
     5     2    12 1   
     6     2    13 1   
     7     3     4 ar  
     8     3     8 ar  
     9     4     5 ar  
    10     4    14 1   
    11     5     6 ar  
    12     5    15 1   
    13     6     7 ar  
    14     6     9 1   
    15     7     8 ar  
    16     7    16 1   
    17     8    17 1   
@<TRIPOS>SUBSTRUCTURE
     1 C2B         1 TEMP              0 ****  ****    0 ROOT
