@<TRIPOS>MOLECULE
C2F
   56    58     1     0     0
SMALL
No Charge or Current Charge


@<TRIPOS>ATOM
      1 N1           2.0500    -0.9310     6.1850 nc         1 C2F      -0.764300
      2 C2           2.4870     0.2400     6.5250 cd         1 C2F       0.744800
      3 NA2          3.6950     0.2470     7.0570 nv         1 C2F      -1.044200
      4 N3           1.8650     1.4110     6.3990 ns         1 C2F      -0.443400
      5 C4           0.6300     1.5350     5.8730 c          1 C2F       0.608200
      6 O4           0.0990     2.6320     5.7790 o          1 C2F      -0.554000
      7 C4A          0.0360     0.2320     5.4380 cd         1 C2F      -0.245200
      8 N5          -1.2680     0.0900     4.8530 nh         1 C2F      -0.574400
      9 C6          -1.6370    -1.2350     4.2210 c6         1 C2F       0.159500
     10 C7          -0.9990    -2.4360     4.9970 c6         1 C2F       0.200800
     11 N8           0.4170    -2.1650     5.3230 nu         1 C2F      -0.819200
     12 C8A          0.8110    -0.9100     5.6300 cc         1 C2F       0.447600
     13 C9          -1.2310    -1.2890     2.7050 c3         1 C2F       0.224800
     14 N10         -1.8100    -0.1870     1.9050 nu         1 C2F      -0.953200
     15 C11         -2.3180     1.1320     4.9330 c3         1 C2F       0.173100
     16 C12         -1.2140     0.5230    -2.2200 ca         1 C2F      -0.153600
     17 C13         -1.4110     1.5880    -1.3120 ca         1 C2F      -0.039000
     18 C14         -1.6080     1.3380     0.0570 ca         1 C2F      -0.205000
     19 C15         -1.6100     0.0260     0.5450 ca         1 C2F       0.299000
     20 C16         -1.4190    -1.0410    -0.3450 ca         1 C2F      -0.205000
     21 C17         -1.2210    -0.8010    -1.7160 ca         1 C2F      -0.039000
     22 O           -0.9960     1.9770    -4.1170 o          1 C2F      -0.645100
     23 N           -0.8350    -0.2570    -4.5270 ns         1 C2F      -0.425900
     24 CA          -0.5790    -0.1960    -5.9880 c3         1 C2F      -0.047300
     25 CB           0.9300    -0.3350    -6.3270 c3         1 C2F      -0.055400
     26 CG           1.8300     0.7940    -5.7590 c3         1 C2F      -0.200400
     27 CD           3.2780     0.6160    -6.2520 c          1 C2F       0.712000
     28 OE1          3.5960     1.1330    -7.3120 o          1 C2F      -0.762500
     29 OE2          4.0340    -0.0780    -5.5890 o          1 C2F      -0.762500
     30 CT          -1.4230    -1.2820    -6.7240 c          1 C2F       0.718000
     31 O1          -2.1510    -0.9270    -7.6400 o          1 C2F      -0.744000
     32 O2          -1.3970    -2.4300    -6.2990 o          1 C2F      -0.744000
     33 HN21         4.1730    -0.6390     6.9500 hn         1 C2F       0.494500
     34 HN22         4.2670     1.0660     6.8950 hn         1 C2F       0.494500
     35 HN3          2.3020     2.2550     6.7250 hn         1 C2F       0.324500
     36 H6          -2.7270    -1.3750     4.2550 h1         1 C2F       0.071700
     37 H71         -1.5630    -2.5870     5.9290 h1         1 C2F       0.043200
     38 H72         -1.0960    -3.3590     4.4070 h1         1 C2F       0.043200
     39 HN8          0.9980    -2.8820     5.7500 hn         1 C2F       0.503000
     40 H91         -0.1350    -1.2520     2.6350 h1         1 C2F       0.035700
     41 H92         -1.5580    -2.2560     2.3000 h1         1 C2F       0.035700
     42 HN1         -1.9460     0.6700     2.4400 hn         1 C2F       0.489000
     43 H111        -2.0680     1.9760     4.2780 h1         1 C2F       0.028700
     44 H112        -3.2950     0.7360     4.6240 h1         1 C2F       0.028700
     45 H113        -2.4110     1.5000     5.9630 h1         1 C2F       0.028700
     46 H13         -1.4120     2.6180    -1.6650 ha         1 C2F       0.127000
     47 H14         -1.7570     2.1730     0.7370 ha         1 C2F       0.097500
     48 H16         -1.4260    -2.0650     0.0170 ha         1 C2F       0.097500
     49 H17         -1.0760    -1.6570    -2.3700 ha         1 C2F       0.127000
     50 HN          -0.8890    -1.1730    -4.1030 hn         1 C2F       0.296500
     51 HA          -0.9250     0.7760    -6.3610 h1         1 C2F       0.055700
     52 HB1          1.2940    -1.3040    -5.9640 hc         1 C2F       0.048700
     53 HB2          1.0360    -0.3510    -7.4190 hc         1 C2F       0.048700
     54 HG1          1.4080     1.7330    -6.1390 hc         1 C2F       0.009700
     55 HG2          1.7860     0.7000    -4.6670 hc         1 C2F       0.009700
     56 C           -1.0050     0.8290    -3.6900 c          1 C2F       0.600700
@<TRIPOS>BOND
     1     1     2 2   
     2     1    12 1   
     3     2     3 1   
     4     2     4 1   
     5     3    33 1   
     6     3    34 1   
     7     4     5 1   
     8     4    35 1   
     9     5     6 2   
    10     5     7 1   
    11     7     8 1   
    12     7    12 2   
    13     8     9 1   
    14     8    15 1   
    15     9    10 1   
    16     9    13 1   
    17     9    36 1   
    18    10    11 1   
    19    10    37 1   
    20    10    38 1   
    21    11    12 1   
    22    11    39 1   
    23    13    14 1   
    24    13    40 1   
    25    13    41 1   
    26    14    19 1   
    27    14    42 1   
    28    15    43 1   
    29    15    44 1   
    30    15    45 1   
    31    16    17 ar  
    32    16    21 ar  
    33    16    56 1   
    34    17    18 ar  
    35    17    46 1   
    36    18    19 ar  
    37    18    47 1   
    38    19    20 ar  
    39    20    21 ar  
    40    20    48 1   
    41    21    49 1   
    42    22    56 2   
    43    23    24 1   
    44    23    50 1   
    45    23    56 1   
    46    24    25 1   
    47    24    30 1   
    48    24    51 1   
    49    25    26 1   
    50    25    52 1   
    51    25    53 1   
    52    26    27 1   
    53    26    54 1   
    54    26    55 1   
    55    27    28 1   
    56    27    29 1   
    57    30    31 1   
    58    30    32 1   
@<TRIPOS>SUBSTRUCTURE
     1 C2F         1 TEMP              0 ****  ****    0 ROOT
