@<TRIPOS>MOLECULE
C2F
   56    58     1     0     0
SMALL
abcg2


@<TRIPOS>ATOM
      1 N1           1.9860    -0.2850     5.2130 nc         1 C2F      -0.764300
      2 C2           2.2290     0.9940     5.1310 cd         1 C2F       0.744800
      3 NA2          3.4850     1.4490     5.2920 nv         1 C2F      -1.044200
      4 N3           1.2540     1.9100     4.9260 ns         1 C2F      -0.443400
      5 C4          -0.0970     1.5830     4.7690 c          1 C2F       0.608200
      6 O4          -0.9070     2.4790     4.5420 o          1 C2F      -0.554000
      7 C4A         -0.3670     0.2020     4.9130 cd         1 C2F      -0.245200
      8 N5          -1.6920    -0.2720     4.7580 nh         1 C2F      -0.574400
      9 C6          -1.7180    -1.6100     4.1930 c6         1 C2F       0.159500
     10 C7          -0.8440    -2.5670     5.0070 c6         1 C2F       0.200800
     11 N8           0.4740    -2.0000     5.1630 nu         1 C2F      -0.819200
     12 C8A          0.6920    -0.6750     5.1120 cc         1 C2F       0.447600
     13 C9          -1.2860    -1.5680     2.7260 c3         1 C2F       0.224800
     14 N10         -1.9640    -0.4810     2.0650 nu         1 C2F      -0.953200
     15 C11         -2.5310    -0.0980     5.9300 c3         1 C2F       0.173100
     16 C12         -1.0430     0.7550    -1.8360 ca         1 C2F      -0.153600
     17 C13         -1.7780     1.5630    -0.9640 ca         1 C2F      -0.039000
     18 C14         -2.0850     1.1510     0.3130 ca         1 C2F      -0.205000
     19 C15         -1.6520    -0.0980     0.7950 ca         1 C2F       0.299000
     20 C16         -0.9120    -0.9120    -0.0770 ca         1 C2F      -0.205000
     21 C17         -0.6190    -0.4850    -1.3610 ca         1 C2F      -0.039000
     22 O           -0.7870     2.4830    -3.4330 o          1 C2F      -0.645100
     23 N           -0.2640     0.3940    -4.0910 ns         1 C2F      -0.425900
     24 CA           0.0410     0.7670    -5.4530 c3         1 C2F      -0.047300
     25 CB           0.9130    -0.3100    -6.1000 c3         1 C2F      -0.055400
     26 CG           2.2430    -0.5180    -5.3940 c3         1 C2F      -0.200400
     27 CD           3.2000    -1.5280    -6.0510 c          1 C2F       0.712000
     28 OE1          2.8500    -2.0530    -7.1270 o          1 C2F      -0.762500
     29 OE2          4.2690    -1.7400    -5.4400 o          1 C2F      -0.762500
     30 CT          -1.2270     1.0220    -6.3060 c          1 C2F       0.718000
     31 O1          -1.0290     1.6210    -7.3830 o          1 C2F      -0.744000
     32 O2          -2.3110     0.5910    -5.8750 o          1 C2F      -0.744000
     33 HN21         4.2230     0.7660     5.2730 hn         1 C2F       0.494500
     34 HN22         3.7340     2.3720     4.9770 hn         1 C2F       0.494500
     35 HN3          1.4920     2.8910     4.8600 hn         1 C2F       0.324500
     36 H6          -2.7490    -1.9680     4.2380 h1         1 C2F       0.071700
     37 H71         -1.3150    -2.7450     5.9800 h1         1 C2F       0.043200
     38 H72         -0.7590    -3.5370     4.5130 h1         1 C2F       0.043200
     39 HN8          1.2740    -2.6050     5.2440 hn         1 C2F       0.503000
     40 H91         -0.1960    -1.4700     2.6420 h1         1 C2F       0.035700
     41 H92         -1.5500    -2.5260     2.2670 h1         1 C2F       0.035700
     42 HN1         -2.2000     0.2650     2.7090 hn         1 C2F       0.489000
     43 H111        -2.5350     0.9520     6.2180 h1         1 C2F       0.028700
     44 H112        -3.5570    -0.3830     5.6920 h1         1 C2F       0.028700
     45 H113        -2.2050    -0.6840     6.7990 h1         1 C2F       0.028700
     46 H13         -2.1160     2.5370    -1.2940 ha         1 C2F       0.127000
     47 H14         -2.6630     1.7980     0.9620 ha         1 C2F       0.097500
     48 H16         -0.5460    -1.8770     0.2480 ha         1 C2F       0.097500
     49 H17         -0.0150    -1.1410    -1.9760 ha         1 C2F       0.127000
     50 HN          -0.4360    -0.5840    -3.9210 hn         1 C2F       0.296500
     51 HA           0.6180     1.6960    -5.4230 h1         1 C2F       0.055700
     52 HB1          0.3550    -1.2510    -6.1430 hc         1 C2F       0.048700
     53 HB2          1.0880    -0.0160    -7.1350 hc         1 C2F       0.048700
     54 HG1          2.7660     0.4430    -5.3160 hc         1 C2F       0.009700
     55 HG2          2.0820    -0.8320    -4.3570 hc         1 C2F       0.009700
     56 C           -0.7040     1.2830    -3.1860 c          1 C2F       0.600700
@<TRIPOS>BOND
     1     1     2 2   
     2     1    12 1   
     3     2     3 1   
     4     2     4 1   
     5     3    33 1   
     6     3    34 1   
     7     4     5 1   
     8     4    35 1   
     9     5     6 2   
    10     5     7 1   
    11     7     8 1   
    12     7    12 2   
    13     8     9 1   
    14     8    15 1   
    15     9    10 1   
    16     9    13 1   
    17     9    36 1   
    18    10    11 1   
    19    10    37 1   
    20    10    38 1   
    21    11    12 1   
    22    11    39 1   
    23    13    14 1   
    24    13    40 1   
    25    13    41 1   
    26    14    19 1   
    27    14    42 1   
    28    15    43 1   
    29    15    44 1   
    30    15    45 1   
    31    16    17 ar  
    32    16    21 ar  
    33    16    56 1   
    34    17    18 ar  
    35    17    46 1   
    36    18    19 ar  
    37    18    47 1   
    38    19    20 ar  
    39    20    21 ar  
    40    20    48 1   
    41    21    49 1   
    42    22    56 2   
    43    23    24 1   
    44    23    50 1   
    45    23    56 1   
    46    24    25 1   
    47    24    30 1   
    48    24    51 1   
    49    25    26 1   
    50    25    52 1   
    51    25    53 1   
    52    26    27 1   
    53    26    54 1   
    54    26    55 1   
    55    27    28 1   
    56    27    29 1   
    57    30    31 1   
    58    30    32 1   
@<TRIPOS>SUBSTRUCTURE
     1 C2F         1 TEMP              0 ****  ****    0 ROOT
