@<TRIPOS>MOLECULE
C2G
   49    50     1     0     0
SMALL
abcg2


@<TRIPOS>ATOM
      1 N1           0.8250     0.7930    -4.2880 n          1 C2G      -0.305000
      2 C2           1.2540    -0.5300    -4.4890 c          1 C2G       0.718400
      3 N3           2.5270    -0.7360    -4.8800 nc         1 C2G      -0.777100
      4 C4           3.3520     0.2740    -5.0800 cd         1 C2G       0.783500
      5 C5           2.9500     1.6310    -4.8870 cd         1 C2G      -0.513600
      6 C6           1.6810     1.8260    -4.4820 cc         1 C2G       0.047600
      7 O2           0.4630    -1.4460    -4.3110 o          1 C2G      -0.534000
      8 N4           4.5970     0.0040    -5.4680 nv         1 C2G      -1.049200
      9 C1          -0.5190     1.0720    -3.8140 c5         1 C2G       0.321700
     10 C7          -1.6760     0.5260    -4.6720 c5         1 C2G       0.099300
     11 O6          -2.5550     1.5890    -4.9410 oh         1 C2G      -0.738000
     12 C3          -2.3470    -0.5080    -3.7490 c5         1 C2G       0.089300
     13 C8          -1.9380    -0.0340    -2.3560 c5         1 C2G       0.165300
     14 O4          -0.6670     0.5700    -2.5160 os         1 C2G      -0.399000
     15 O3          -3.7490    -0.5050    -3.8590 oh         1 C2G      -0.708000
     16 C9          -1.8540    -1.1600    -1.3570 c3         1 C2G       0.234600
     17 O5          -1.5170    -0.6430    -0.0880 os         1 C2G      -0.564400
     18 PA          -2.0110    -1.5020     1.2280 p5         1 C2G       1.456800
     19 O1A         -1.4470    -2.8860     1.1510 o          1 C2G      -0.851000
     20 O2A         -3.4770    -1.2910     1.4420 o          1 C2G      -0.851000
     21 O3A         -1.1410    -0.5840     2.2740 os         1 C2G      -0.684800
     22 PB          -1.5070    -0.4440     3.8690 p5         1 C2G       1.455800
     23 O1B         -2.0040    -1.7510     4.4030 o          1 C2G      -0.853000
     24 O2B         -2.2750     0.8170     4.1110 o          1 C2G      -0.853000
     25 O3B          0.0610    -0.2220     4.3180 os         1 C2G      -0.559400
     26 C1G          2.0420     0.3230     7.4220 c3         1 C2G       0.111600
     27 C2G          1.7900     0.0480     5.9480 c3         1 C2G       0.158300
     28 O2G          2.5320     0.9020     5.1080 oh         1 C2G      -0.630000
     29 C3G          0.2970     0.1170     5.6670 c3         1 C2G       0.200600
     30 HC5          3.6230     2.4620    -5.0400 ha         1 C2G       0.189000
     31 HC6          1.2890     2.8170    -4.2980 h4         1 C2G       0.200000
     32 HN41         4.8870    -0.9480    -5.6090 hn         1 C2G       0.490500
     33 HN42         5.2610     0.7340    -5.6540 hn         1 C2G       0.490500
     34 HC1         -0.5990     2.1640    -3.8120 h2         1 C2G       0.057700
     35 HC2         -1.3170     0.0770    -5.6040 h1         1 C2G       0.054700
     36 HO2         -3.4510     1.2430    -4.8290 ho         1 C2G       0.524000
     37 HC3         -1.9350    -1.4980    -3.9500 h1         1 C2G       0.085700
     38 HC4         -2.6660     0.7100    -2.0020 h1         1 C2G       0.076700
     39 HO3         -4.0090    -1.1550    -4.5190 ho         1 C2G       0.496000
     40 HC51        -2.8280    -1.6640    -1.3510 h1         1 C2G       0.026700
     41 HC52        -1.1090    -1.8910    -1.6920 h1         1 C2G       0.026700
     42 H1G          3.5540     0.3310     8.6270 ho         1 C2G       0.412000
     43 H2G          2.1380    -0.9660     5.7210 h1         1 C2G       0.091700
     44 HOG          2.2680     1.8110     5.2870 ho         1 C2G       0.420000
     45 H3G1        -0.0730     1.1280     5.8850 h1         1 C2G       0.007700
     46 H3G2        -0.2220    -0.5700     6.3470 h1         1 C2G       0.007700
     47 H1G1         1.7020     1.3410     7.6620 h1         1 C2G       0.012200
     48 O1G          3.4130     0.1570     7.6930 oh         1 C2G      -0.652000
     49 H1G2         1.4250    -0.3640     8.0160 h1         1 C2G       0.012200
@<TRIPOS>BOND
     1     1     2 1   
     2     1     6 1   
     3     1     9 1   
     4     2     3 1   
     5     2     7 2   
     6     3     4 2   
     7     4     5 1   
     8     4     8 1   
     9     5     6 2   
    10     5    30 1   
    11     6    31 1   
    12     8    32 1   
    13     8    33 1   
    14     9    10 1   
    15     9    14 1   
    16     9    34 1   
    17    10    11 1   
    18    10    12 1   
    19    10    35 1   
    20    11    36 1   
    21    12    13 1   
    22    12    15 1   
    23    12    37 1   
    24    13    14 1   
    25    13    16 1   
    26    13    38 1   
    27    15    39 1   
    28    16    17 1   
    29    16    40 1   
    30    16    41 1   
    31    17    18 1   
    32    18    19 1   
    33    18    20 1   
    34    18    21 1   
    35    21    22 1   
    36    22    23 1   
    37    22    24 1   
    38    22    25 1   
    39    25    29 1   
    40    26    27 1   
    41    26    47 1   
    42    26    48 1   
    43    26    49 1   
    44    27    28 1   
    45    27    29 1   
    46    27    43 1   
    47    28    44 1   
    48    29    45 1   
    49    29    46 1   
    50    42    48 1   
@<TRIPOS>SUBSTRUCTURE
     1 C2G         1 TEMP              0 ****  ****    0 ROOT
