@<TRIPOS>MOLECULE
C2G
   49    50     1     0     0
SMALL
No Charge or Current Charge


@<TRIPOS>ATOM
      1 N1           0.9330     1.1260    -4.5630 n          1 C2G      -0.305000
      2 C2           2.1930     0.9870    -3.9350 c          1 C2G       0.718400
      3 N3           3.3180     1.1790    -4.6940 nc         1 C2G      -0.777100
      4 C4           3.2190     1.4710    -5.9440 cd         1 C2G       0.783500
      5 C5           2.0040     1.5970    -6.6410 cd         1 C2G      -0.513600
      6 C6           0.8480     1.4170    -5.9210 cc         1 C2G       0.047600
      7 O2           2.3280     0.6760    -2.7640 o          1 C2G      -0.534000
      8 N4           4.3620     1.6230    -6.5780 nv         1 C2G      -1.049200
      9 C1          -0.3330     0.9890    -3.7900 c5         1 C2G       0.321700
     10 C7          -0.6590    -0.5470    -3.6520 c5         1 C2G       0.099300
     11 O6          -1.9870    -0.8800    -4.0790 oh         1 C2G      -0.738000
     12 C3          -0.5690    -0.7550    -2.1060 c5         1 C2G       0.089300
     13 C8          -0.9890     0.6590    -1.5870 c5         1 C2G       0.165300
     14 O4          -0.2650     1.5460    -2.4620 os         1 C2G      -0.399000
     15 O3          -1.4340    -1.8350    -1.6870 oh         1 C2G      -0.708000
     16 C9          -0.6170     0.9700    -0.1030 c3         1 C2G       0.234600
     17 O5          -1.7870     1.3500     0.6380 os         1 C2G      -0.564400
     18 PA          -2.7760     0.2140     1.2100 p5         1 C2G       1.456800
     19 O1A         -2.8590    -0.9080     0.2300 o          1 C2G      -0.851000
     20 O2A         -4.1000     0.8330     1.5090 o          1 C2G      -0.851000
     21 O3A         -1.9110    -0.1380     2.4750 os         1 C2G      -0.684800
     22 PB          -2.7200    -0.8980     3.5930 p5         1 C2G       1.455800
     23 O1B         -3.5590    -2.0260     3.0890 o          1 C2G      -0.853000
     24 O2B         -3.4760     0.0160     4.5020 o          1 C2G      -0.853000
     25 O3B         -1.4440    -1.5110     4.3650 os         1 C2G      -0.559400
     26 C1G          1.5090    -0.5640     6.5860 c3         1 C2G       0.111600
     27 C2G          0.7020    -1.3450     5.5160 c3         1 C2G       0.158300
     28 O2G          1.5180    -1.4680     4.3330 oh         1 C2G      -0.630000
     29 C3G         -0.6550    -0.6530     5.2020 c3         1 C2G       0.200600
     30 HC5          1.9840     1.8330    -7.6980 ha         1 C2G       0.189000
     31 HC6         -0.1690     1.4820    -6.3050 h4         1 C2G       0.200000
     32 HN41         5.1510     1.2430    -6.0750 hn         1 C2G       0.490500
     33 HN42         4.3420     1.4420    -7.5730 hn         1 C2G       0.490500
     34 HC1         -1.1190     1.4980    -4.3600 h2         1 C2G       0.057700
     35 HC2          0.0780    -1.1740    -4.1750 h1         1 C2G       0.054700
     36 HO2         -2.2790    -1.5130    -3.3710 ho         1 C2G       0.524000
     37 HC3          0.4700    -0.9630    -1.8120 h1         1 C2G       0.085700
     38 HC4         -2.0640     0.8320    -1.7410 h1         1 C2G       0.076700
     39 HO3         -1.9880    -1.5020    -0.9050 ho         1 C2G       0.496000
     40 HC51        -0.1420     0.0880     0.3480 h1         1 C2G       0.026700
     41 HC52         0.1200     1.7830    -0.0770 h1         1 C2G       0.026700
     42 H1G          3.2280    -0.6920     7.5310 ho         1 C2G       0.412000
     43 H2G          0.4810    -2.3390     5.9290 h1         1 C2G       0.091700
     44 HOG          2.4340    -1.5620     4.6760 ho         1 C2G       0.420000
     45 H3G1        -0.4680     0.3140     4.7160 h1         1 C2G       0.007700
     46 H3G2        -1.1830    -0.4620     6.1450 h1         1 C2G       0.007700
     47 H1G1         1.6590     0.4700     6.2490 h1         1 C2G       0.012200
     48 O1G          2.7780    -1.1990     6.8190 oh         1 C2G      -0.652000
     49 H1G2         0.9290    -0.5310     7.5180 h1         1 C2G       0.012200
@<TRIPOS>BOND
     1     1     2 1   
     2     1     6 1   
     3     1     9 1   
     4     2     3 1   
     5     2     7 2   
     6     3     4 2   
     7     4     5 1   
     8     4     8 1   
     9     5     6 2   
    10     5    30 1   
    11     6    31 1   
    12     8    32 1   
    13     8    33 1   
    14     9    10 1   
    15     9    14 1   
    16     9    34 1   
    17    10    11 1   
    18    10    12 1   
    19    10    35 1   
    20    11    36 1   
    21    12    13 1   
    22    12    15 1   
    23    12    37 1   
    24    13    14 1   
    25    13    16 1   
    26    13    38 1   
    27    15    39 1   
    28    16    17 1   
    29    16    40 1   
    30    16    41 1   
    31    17    18 1   
    32    18    19 1   
    33    18    20 1   
    34    18    21 1   
    35    21    22 1   
    36    22    23 1   
    37    22    24 1   
    38    22    25 1   
    39    25    29 1   
    40    26    27 1   
    41    26    47 1   
    42    26    48 1   
    43    26    49 1   
    44    27    28 1   
    45    27    29 1   
    46    27    43 1   
    47    28    44 1   
    48    29    45 1   
    49    29    46 1   
    50    42    48 1   
@<TRIPOS>SUBSTRUCTURE
     1 C2G         1 TEMP              0 ****  ****    0 ROOT
