@<TRIPOS>MOLECULE
C2H
    4     3     1     0     0
SMALL
bcc


@<TRIPOS>ATOM
      1 C           -0.5940     0.0290     0.0400 c1         1 C2H      -0.162500
      2 C1           0.6070     0.0230     0.0400 c1         1 C2H      -0.162500
      3 H2          -1.6600     0.0340     0.0410 ha         1 C2H       0.162500
      4 H4           1.6730     0.0180     0.0390 ha         1 C2H       0.162500
@<TRIPOS>BOND
     1     1     2 3   
     2     1     3 1   
     3     2     4 1   
@<TRIPOS>SUBSTRUCTURE
     1 C2H         1 TEMP              0 ****  ****    0 ROOT
