@<TRIPOS>MOLECULE
C2H
    4     3     1     0     0
SMALL
No Charge or Current Charge


@<TRIPOS>ATOM
      1 C           -0.5990     0.0300     0.0360 c1         1 C2H      -0.250000
      2 C1           0.6120     0.0220     0.0440 c1         1 C2H      -0.250000
      3 H2          -1.6730     0.0340     0.0420 ha         1 C2H       0.250000
      4 H4           1.6860     0.0180     0.0380 ha         1 C2H       0.250000
@<TRIPOS>BOND
     1     1     2 3   
     2     1     3 1   
     3     2     4 1   
@<TRIPOS>SUBSTRUCTURE
     1 C2H         1 TEMP              0 ****  ****    0 ROOT
