@<TRIPOS>MOLECULE
C2K
   63    66     1     0     0
SMALL
No Charge or Current Charge


@<TRIPOS>ATOM
      1 Cl1          1.2760    -3.0730     2.3150 cl         1 C2K      -0.190000
      2 CBB         -0.0370    -2.9070     1.1460 ca         1 C2K       0.093000
      3 CD2         -0.9730    -1.8790     1.3390 ca         1 C2K      -0.087000
      4 CG          -2.0350    -1.6990     0.4310 ca         1 C2K      -0.084300
      5 CB          -2.9650    -0.5020     0.5680 c3         1 C2K      -0.039100
      6 CD1         -2.1910    -2.5970    -0.6410 ca         1 C2K      -0.088000
      7 CAK         -1.2650    -3.6360    -0.8320 ca         1 C2K      -0.112000
      8 CBE         -0.1670    -3.7740     0.0350 ca         1 C2K       0.118100
      9 OAX          0.7910    -4.7160    -0.2740 os         1 C2K      -0.351100
     10 CAQ          2.0970    -4.2840    -0.7140 c3         1 C2K       0.158600
     11 CAO          1.9570    -3.5480    -2.0720 c3         1 C2K      -0.112400
     12 CAP          3.2190    -2.7590    -2.5050 c3         1 C2K      -0.069400
     13 CAR          3.6470    -1.6220    -1.5440 c3         1 C2K       0.159600
     14 OAY          2.5060    -0.7830    -1.2760 os         1 C2K      -0.323100
     15 CBF          2.5620     0.3180    -0.4390 ca         1 C2K       0.194100
     16 CAN          3.7930     0.7320     0.1230 ca         1 C2K      -0.174000
     17 CBD          3.8700     1.8390     0.9910 ca         1 C2K      -0.136300
     18 CBI          5.2200     2.2590     1.5920 c3         1 C2K       0.353300
     19 FAE          6.2270     2.1670     0.6930 f          1 C2K      -0.111667
     20 FAF          5.2200     3.5360     2.0390 f          1 C2K      -0.111667
     21 FAD          5.5550     1.4750     2.6410 f          1 C2K      -0.111667
     22 CAJ          2.6870     2.5310     1.3040 ca         1 C2K      -0.109000
     23 CAL          1.4580     2.1320     0.7580 ca         1 C2K      -0.059000
     24 CBG          1.3700     1.0220    -0.1200 ca         1 C2K      -0.165600
     25 CAZ          0.0220     0.6080    -0.6840 c          1 C2K       0.633700
     26 OAB         -0.1140    -0.0390    -1.7120 o          1 C2K      -0.578100
     27 N           -1.0810     1.0590     0.0180 ns         1 C2K      -0.489900
     28 CA          -2.4950     0.7140    -0.2790 c3         1 C2K       0.026700
     29 C           -3.4140     1.9480    -0.0520 c          1 C2K       0.583100
     30 O           -3.0420     2.9560     0.5390 o          1 C2K      -0.595100
     31 NAW         -4.6890     1.8310    -0.5700 ns         1 C2K      -0.482900
     32 CBJ         -5.7120     2.8460    -0.4830 cx         1 C2K       0.056400
     33 CAH         -6.3800     3.0020     0.8920 c3         1 C2K       0.167800
     34 NAA         -7.0720     1.7640     1.3250 n8         1 C2K      -0.992200
     35 CAS         -6.5460     3.0300    -1.7300 cx         1 C2K      -0.120900
     36 CAT         -5.5150     4.0660    -1.3550 cx         1 C2K      -0.120900
     37 H1          -0.8510    -1.1970     2.1770 ha         1 C2K       0.125000
     38 H2          -3.9820    -0.7840     0.2710 hc         1 C2K       0.057700
     39 H3          -3.0310    -0.1980     1.6210 hc         1 C2K       0.057700
     40 H4          -3.0080    -2.4690    -1.3480 ha         1 C2K       0.117000
     41 H5          -1.3660    -4.3030    -1.6840 ha         1 C2K       0.131000
     42 H6           2.5530    -3.6170     0.0260 h1         1 C2K       0.053700
     43 H7           2.7650    -5.1470    -0.8360 h1         1 C2K       0.053700
     44 H8           1.7140    -4.2860    -2.8460 hc         1 C2K       0.063700
     45 H9           1.1160    -2.8470    -2.0420 hc         1 C2K       0.063700
     46 H10          4.0580    -3.4540    -2.6240 hc         1 C2K       0.055200
     47 H11          3.0360    -2.3240    -3.4950 hc         1 C2K       0.055200
     48 H12          4.0320    -2.0550    -0.6120 h1         1 C2K       0.039700
     49 H13          4.4530    -1.0450    -2.0150 h1         1 C2K       0.039700
     50 H14          4.7110     0.1970    -0.1030 ha         1 C2K       0.133000
     51 H15          2.7090     3.3870     1.9760 ha         1 C2K       0.139000
     52 H16          0.5800     2.7180     1.0170 ha         1 C2K       0.139000
     53 H17         -0.8980     1.6170     0.8420 hn         1 C2K       0.326500
     54 H18         -2.5790     0.4540    -1.3420 h1         1 C2K       0.097700
     55 H19         -4.9080     0.9600    -1.0390 hn         1 C2K       0.321500
     56 H20         -5.6170     3.2620     1.6400 h1         1 C2K       0.045700
     57 H21         -7.1130     3.8210     0.8600 h1         1 C2K       0.045700
     58 H22         -6.3760     1.0160     1.4100 hn         1 C2K       0.391000
     59 H23         -7.4170     1.8910     2.2830 hn         1 C2K       0.391000
     60 H25         -6.3370     2.3960    -2.5880 hc         1 C2K       0.080700
     61 H26         -7.5940     3.2920    -1.6070 hc         1 C2K       0.080700
     62 H27         -5.8700     5.0230    -0.9810 hc         1 C2K       0.080700
     63 H28         -4.6110     4.1230    -1.9570 hc         1 C2K       0.080700
@<TRIPOS>BOND
     1     1     2 1   
     2     2     3 ar  
     3     2     8 ar  
     4     3     4 ar  
     5     3    37 1   
     6     4     5 1   
     7     4     6 ar  
     8     5    28 1   
     9     5    38 1   
    10     5    39 1   
    11     6     7 ar  
    12     6    40 1   
    13     7     8 ar  
    14     7    41 1   
    15     8     9 1   
    16     9    10 1   
    17    10    11 1   
    18    10    42 1   
    19    10    43 1   
    20    11    12 1   
    21    11    44 1   
    22    11    45 1   
    23    12    13 1   
    24    12    46 1   
    25    12    47 1   
    26    13    14 1   
    27    13    48 1   
    28    13    49 1   
    29    14    15 1   
    30    15    16 ar  
    31    15    24 ar  
    32    16    17 ar  
    33    16    50 1   
    34    17    18 1   
    35    17    22 ar  
    36    18    19 1   
    37    18    20 1   
    38    18    21 1   
    39    22    23 ar  
    40    22    51 1   
    41    23    24 ar  
    42    23    52 1   
    43    24    25 1   
    44    25    26 2   
    45    25    27 1   
    46    27    28 1   
    47    27    53 1   
    48    28    29 1   
    49    28    54 1   
    50    29    30 2   
    51    29    31 1   
    52    31    32 1   
    53    31    55 1   
    54    32    33 1   
    55    32    35 1   
    56    32    36 1   
    57    33    34 1   
    58    33    56 1   
    59    33    57 1   
    60    34    58 1   
    61    34    59 1   
    62    35    36 1   
    63    35    60 1   
    64    35    61 1   
    65    36    62 1   
    66    36    63 1   
@<TRIPOS>SUBSTRUCTURE
     1 C2K         1 TEMP              0 ****  ****    0 ROOT
