@<TRIPOS>MOLECULE
C2K
   63    66     1     0     0
SMALL
bcc


@<TRIPOS>ATOM
      1 CL1          0.9770    -3.5170     2.4220 cl         1 C2K      -0.098400
      2 CBB         -0.2140    -3.1640     1.2170 ca         1 C2K       0.001400
      3 CD2         -1.1400    -2.1600     1.4530 ca         1 C2K      -0.105000
      4 CG          -2.1140    -1.8670     0.5070 ca         1 C2K      -0.084300
      5 CB          -2.9810    -0.6530     0.6590 c3         1 C2K      -0.039100
      6 CD1         -2.1830    -2.6470    -0.6430 ca         1 C2K      -0.106000
      7 CAK         -1.2490    -3.6390    -0.8810 ca         1 C2K      -0.130000
      8 CBE         -0.2240    -3.8850     0.0250 ca         1 C2K       0.118100
      9 OAX          0.7450    -4.7870    -0.2710 os         1 C2K      -0.327900
     10 CAQ          1.9760    -4.1980    -0.7200 c3         1 C2K       0.135400
     11 CAO          1.8290    -3.4110    -2.0110 c3         1 C2K      -0.112400
     12 CAP          3.0880    -2.6270    -2.3730 c3         1 C2K      -0.069400
     13 CAR          3.4630    -1.5160    -1.4090 c3         1 C2K       0.136400
     14 OAY          2.3340    -0.6700    -1.2290 os         1 C2K      -0.299900
     15 CBF          2.4470     0.4250    -0.4740 ca         1 C2K       0.194100
     16 CAN          3.6460     0.8550     0.0880 ca         1 C2K      -0.192000
     17 CBD          3.6850     2.0180     0.8510 ca         1 C2K      -0.136300
     18 CBI          5.0010     2.4250     1.4410 c3         1 C2K       0.717200
     19 FAE          5.9720     2.4520     0.5180 f          1 C2K      -0.232967
     20 FAF          4.9610     3.6350     2.0020 f          1 C2K      -0.232967
     21 FAD          5.3990     1.5640     2.3890 f          1 C2K      -0.232967
     22 CAJ          2.5400     2.7600     1.0790 ca         1 C2K      -0.127000
     23 CAL          1.3420     2.3130     0.5400 ca         1 C2K      -0.077000
     24 CBG          1.2740     1.1600    -0.2260 ca         1 C2K      -0.165600
     25 CAZ         -0.0440     0.7500    -0.8060 c          1 C2K       0.700700
     26 OAB         -0.1910     0.4960    -1.9890 o          1 C2K      -0.578100
     27 N           -1.0400     0.7310     0.1010 ns         1 C2K      -0.556900
     28 CA          -2.4170     0.4890    -0.2140 c3         1 C2K       0.026700
     29 C           -3.2320     1.7730    -0.0330 c          1 C2K       0.650100
     30 O           -2.7810     2.7470     0.5440 o          1 C2K      -0.595100
     31 NAW         -4.4730     1.7160    -0.5450 ns         1 C2K      -0.549900
     32 CBJ         -5.4130     2.7960    -0.4580 cx         1 C2K       0.056400
     33 CAH         -6.0770     2.9480     0.8900 c3         1 C2K       0.167800
     34 NAA         -6.8700     1.7710     1.2130 n8         1 C2K      -0.881800
     35 CAS         -6.2120     3.0570    -1.6920 cx         1 C2K      -0.120900
     36 CAT         -5.1350     4.0160    -1.2790 cx         1 C2K      -0.120900
     37 H1          -1.0840    -1.5870     2.3690 ha         1 C2K       0.143000
     38 H2          -4.0070    -0.8680     0.3540 hc         1 C2K       0.057700
     39 H3          -3.0180    -0.3330     1.7030 hc         1 C2K       0.057700
     40 H4          -2.9500    -2.4540    -1.3830 ha         1 C2K       0.135000
     41 H5          -1.2830    -4.2160    -1.7970 ha         1 C2K       0.149000
     42 H6           2.3930    -3.5700     0.0730 h1         1 C2K       0.053700
     43 H7           2.6610    -5.0340    -0.8590 h1         1 C2K       0.053700
     44 H8           1.5940    -4.0960    -2.8290 hc         1 C2K       0.063700
     45 H9           0.9920    -2.7140    -1.9350 hc         1 C2K       0.063700
     46 H10          3.9520    -3.2950    -2.4390 hc         1 C2K       0.055200
     47 H11          2.9600    -2.2000    -3.3700 hc         1 C2K       0.055200
     48 H12          3.7860    -1.9120    -0.4400 h1         1 C2K       0.039700
     49 H13          4.3030    -0.9530    -1.8280 h1         1 C2K       0.039700
     50 H14          4.5540     0.2890    -0.0680 ha         1 C2K       0.151000
     51 H15          2.5540     3.6690     1.6630 ha         1 C2K       0.157000
     52 H16          0.4410     2.8890     0.7130 ha         1 C2K       0.157000
     53 H17         -0.8180     0.9410     1.0610 hn         1 C2K       0.326500
     54 H18         -2.4700     0.1840    -1.2610 h1         1 C2K       0.097700
     55 H19         -4.7590     0.8810    -1.0340 hn         1 C2K       0.321500
     56 H20         -5.3070     3.1800     1.6380 h1         1 C2K       0.045700
     57 H21         -6.7420     3.8140     0.8510 h1         1 C2K       0.045700
     58 H22         -6.2520     0.9780     1.3400 hn         1 C2K       0.335800
     59 H23         -7.3100     1.9080     2.1140 hn         1 C2K       0.335800
     60 H25         -6.0280     2.4340    -2.5590 hc         1 C2K       0.080700
     61 H26         -7.2470     3.3470    -1.5640 hc         1 C2K       0.080700
     62 H27         -5.4240     4.9770    -0.8720 hc         1 C2K       0.080700
     63 H28         -4.2240     4.0330    -1.8630 hc         1 C2K       0.080700
@<TRIPOS>BOND
     1     1     2 1   
     2     2     3 ar  
     3     2     8 ar  
     4     3     4 ar  
     5     3    37 1   
     6     4     5 1   
     7     4     6 ar  
     8     5    28 1   
     9     5    38 1   
    10     5    39 1   
    11     6     7 ar  
    12     6    40 1   
    13     7     8 ar  
    14     7    41 1   
    15     8     9 1   
    16     9    10 1   
    17    10    11 1   
    18    10    42 1   
    19    10    43 1   
    20    11    12 1   
    21    11    44 1   
    22    11    45 1   
    23    12    13 1   
    24    12    46 1   
    25    12    47 1   
    26    13    14 1   
    27    13    48 1   
    28    13    49 1   
    29    14    15 1   
    30    15    16 ar  
    31    15    24 ar  
    32    16    17 ar  
    33    16    50 1   
    34    17    18 1   
    35    17    22 ar  
    36    18    19 1   
    37    18    20 1   
    38    18    21 1   
    39    22    23 ar  
    40    22    51 1   
    41    23    24 ar  
    42    23    52 1   
    43    24    25 1   
    44    25    26 2   
    45    25    27 1   
    46    27    28 1   
    47    27    53 1   
    48    28    29 1   
    49    28    54 1   
    50    29    30 2   
    51    29    31 1   
    52    31    32 1   
    53    31    55 1   
    54    32    33 1   
    55    32    35 1   
    56    32    36 1   
    57    33    34 1   
    58    33    56 1   
    59    33    57 1   
    60    34    58 1   
    61    34    59 1   
    62    35    36 1   
    63    35    60 1   
    64    35    61 1   
    65    36    62 1   
    66    36    63 1   
@<TRIPOS>SUBSTRUCTURE
     1 C2K         1 TEMP              0 ****  ****    0 ROOT
