@<TRIPOS>MOLECULE
C2M
   27    28     1     0     0
SMALL
bcc


@<TRIPOS>ATOM
      1 N1           3.5270     1.0870     0.5640 nb         1 C2M      -0.816000
      2 C2           4.1850     0.1550    -0.1240 ca         1 C2M       0.945900
      3 N2           3.6470    -0.9040    -0.7250 nb         1 C2M      -0.859000
      4 C3           2.3290    -1.0440    -0.6380 ca         1 C2M       0.759200
      5 C4           1.5270    -0.1140     0.0670 cp         1 C2M      -0.421600
      6 C5           2.2040     0.9460     0.6530 ca         1 C2M       0.543600
      7 C6           0.0630    -0.2850     0.1590 cp         1 C2M       0.005000
      8 C7          -0.7950     0.6230    -0.4560 ca         1 C2M      -0.112000
      9 C8          -2.1700     0.4760    -0.3580 ca         1 C2M       0.024400
     10 C9          -2.7100    -0.5940     0.3460 ca         1 C2M       0.021400
     11 C10         -1.8640    -1.5120     0.9510 ca         1 C2M      -0.118000
     12 C11         -0.4920    -1.3560     0.8590 ca         1 C2M      -0.120000
     13 N3           5.5210     0.3150    -0.2500 nv         1 C2M      -0.945500
     14 N4           1.7930    -2.1250    -1.2360 nv         1 C2M      -0.958500
     15 C12          1.4920     2.0100     1.4300 c3         1 C2M      -0.155400
     16 CL1         -4.4150    -0.7930     0.4770 cl         1 C2M      -0.080400
     17 CL2         -3.1970     1.6260    -1.1280 cl         1 C2M      -0.081400
     18 H7          -0.3900     1.4540    -1.0180 ha         1 C2M       0.154000
     19 H10         -2.2830    -2.3440     1.5000 ha         1 C2M       0.151000
     20 H11          0.1520    -2.0730     1.3510 ha         1 C2M       0.147000
     21 HN31         5.9770     0.9740     0.3570 hn         1 C2M       0.435800
     22 HN32         6.0710    -0.4680    -0.5580 hn         1 C2M       0.435800
     23 HN41         2.3770    -2.6570    -1.8590 hn         1 C2M       0.435800
     24 HN42         0.8030    -2.1790    -1.3990 hn         1 C2M       0.435800
     25 H121         1.2770     2.8670     0.7880 hc         1 C2M       0.057367
     26 H122         0.5470     1.6680     1.8460 hc         1 C2M       0.057367
     27 H123         2.1250     2.3670     2.2410 hc         1 C2M       0.057367
@<TRIPOS>BOND
     1     1     2 ar  
     2     1     6 ar  
     3     2     3 ar  
     4     2    13 1   
     5     3     4 ar  
     6     4     5 ar  
     7     4    14 1   
     8     5     6 ar  
     9     5     7 1   
    10     6    15 1   
    11     7     8 ar  
    12     7    12 ar  
    13     8     9 ar  
    14     8    18 1   
    15     9    10 ar  
    16     9    17 1   
    17    10    11 ar  
    18    10    16 1   
    19    11    12 ar  
    20    11    19 1   
    21    12    20 1   
    22    13    21 1   
    23    13    22 1   
    24    14    23 1   
    25    14    24 1   
    26    15    25 1   
    27    15    26 1   
    28    15    27 1   
@<TRIPOS>SUBSTRUCTURE
     1 C2M         1 TEMP              0 ****  ****    0 ROOT
