@<TRIPOS>MOLECULE
C2M
   27    28     1     0     0
SMALL
No Charge or Current Charge


@<TRIPOS>ATOM
      1 N1           3.5510     1.1110     0.5250 nb         1 C2M      -0.290000
      2 C2           4.2000     0.1450    -0.1320 ca         1 C2M       0.419900
      3 N2           3.6860    -0.9450    -0.7030 nb         1 C2M      -0.333000
      4 C3           2.3610    -1.0750    -0.6020 ca         1 C2M       0.430900
      5 C4           1.5370    -0.1350     0.0550 cp         1 C2M      -0.291000
      6 C5           2.2140     0.9770     0.6230 ca         1 C2M       0.215300
      7 C6           0.0550    -0.2960     0.1510 cp         1 C2M       0.005000
      8 C7          -0.8170     0.6690    -0.4060 ca         1 C2M      -0.094000
      9 C8          -2.2120     0.5250    -0.3110 ca         1 C2M       0.116000
     10 C9          -2.7600    -0.5950     0.3480 ca         1 C2M       0.113000
     11 C10         -1.9070    -1.5630     0.9050 ca         1 C2M      -0.100000
     12 C11         -0.5130    -1.4140     0.8070 ca         1 C2M      -0.102000
     13 N3           5.5410     0.2840    -0.2260 nv         1 C2M      -1.055900
     14 N4           1.8610    -2.1770    -1.2110 nv         1 C2M      -1.068900
     15 C12          1.5010     2.0770     1.3950 c3         1 C2M      -0.155400
     16 Cl1         -4.5060    -0.8080     0.4870 cl         1 C2M      -0.172000
     17 Cl2         -3.2500     1.7610    -1.0250 cl         1 C2M      -0.173000
     18 H7          -0.4060     1.5320    -0.9220 ha         1 C2M       0.136000
     19 H10         -2.3280    -2.4260     1.4150 ha         1 C2M       0.133000
     20 H11          0.1390    -2.1650     1.2490 ha         1 C2M       0.129000
     21 HN31         5.9960     0.9600     0.3820 hn         1 C2M       0.491000
     22 HN32         6.0910    -0.5250    -0.5060 hn         1 C2M       0.491000
     23 HN41         2.4630    -2.6740    -1.8620 hn         1 C2M       0.491000
     24 HN42         0.8620    -2.2140    -1.3900 hn         1 C2M       0.491000
     25 H121         1.0470     2.8020     0.7110 hc         1 C2M       0.057367
     26 H122         0.7070     1.6660     2.0290 hc         1 C2M       0.057367
     27 H123         2.1890     2.6240     2.0510 hc         1 C2M       0.057367
@<TRIPOS>BOND
     1     1     2 ar  
     2     1     6 ar  
     3     2     3 ar  
     4     2    13 1   
     5     3     4 ar  
     6     4     5 ar  
     7     4    14 1   
     8     5     6 ar  
     9     5     7 1   
    10     6    15 1   
    11     7     8 ar  
    12     7    12 ar  
    13     8     9 ar  
    14     8    18 1   
    15     9    10 ar  
    16     9    17 1   
    17    10    11 ar  
    18    10    16 1   
    19    11    12 ar  
    20    11    19 1   
    21    12    20 1   
    22    13    21 1   
    23    13    22 1   
    24    14    23 1   
    25    14    24 1   
    26    15    25 1   
    27    15    26 1   
    28    15    27 1   
@<TRIPOS>SUBSTRUCTURE
     1 C2M         1 TEMP              0 ****  ****    0 ROOT
