@<TRIPOS>MOLECULE
C2N
   12    11     1     0     0
SMALL
bcc


@<TRIPOS>ATOM
      1 CL          11.2280    33.5630   113.0870 cl         1 C2N      -0.263400
      2 CB          11.3140    33.7410   111.2940 c3         1 C2N       0.107000
      3 CA          10.3410    32.8000   110.6160 c3         1 C2N       0.002500
      4 C           10.7250    31.3020   110.7490 c          1 C2N       0.942600
      5 OXT          9.8170    30.5030   110.4430 o          1 C2N      -0.828300
      6 O           11.8870    31.0280   111.0950 o          1 C2N      -0.828300
      7 N           10.3470    33.1350   109.1920 n8         1 C2N      -0.881800
      8 HB1         11.0760    34.7830   111.0850 h1         1 C2N       0.047200
      9 HB2         12.3390    33.5380   110.9960 h1         1 C2N       0.047200
     10 HA           9.3510    32.9430   111.0730 h1         1 C2N       0.014700
     11 H            9.8170    32.4330   108.6900 hn         1 C2N       0.319800
     12 H2           9.8530    34.0070   109.0460 hn         1 C2N       0.319800
@<TRIPOS>BOND
     1     1     2 1   
     2     2     3 1   
     3     2     8 1   
     4     2     9 1   
     5     3     4 1   
     6     3     7 1   
     7     3    10 1   
     8     4     5 1   
     9     4     6 1   
    10     7    11 1   
    11     7    12 1   
@<TRIPOS>SUBSTRUCTURE
     1 C2N         1 TEMP              0 ****  ****    0 ROOT
