@<TRIPOS>MOLECULE
C2N
   12    11     1     0     0
SMALL
No Charge or Current Charge


@<TRIPOS>ATOM
      1 Cl          11.0850    33.4880   113.1310 cl         1 C2N      -0.263400
      2 CB          11.2850    33.7300   111.3390 c3         1 C2N       0.107000
      3 CA          10.3930    32.7640   110.5200 c3         1 C2N       0.002500
      4 C           10.7780    31.2540   110.8300 c          1 C2N       0.942600
      5 OXT          9.8720    30.4600   111.0710 o          1 C2N      -0.828300
      6 O           11.9530    30.9020   110.7510 o          1 C2N      -0.828300
      7 N           10.3520    33.1820   109.0620 n8         1 C2N      -0.881800
      8 HB1         11.0120    34.7720   111.1290 h1         1 C2N       0.047200
      9 HB2         12.3460    33.5850   111.0960 h1         1 C2N       0.047200
     10 HA           9.3670    32.9000   110.8880 h1         1 C2N       0.014700
     11 H            9.6690    32.6030   108.5610 hn         1 C2N       0.319800
     12 H2           9.9830    34.1360   108.9870 hn         1 C2N       0.319800
@<TRIPOS>BOND
     1     1     2 1   
     2     2     3 1   
     3     2     8 1   
     4     2     9 1   
     5     3     4 1   
     6     3     7 1   
     7     3    10 1   
     8     4     5 1   
     9     4     6 1   
    10     7    11 1   
    11     7    12 1   
@<TRIPOS>SUBSTRUCTURE
     1 C2N         1 TEMP              0 ****  ****    0 ROOT
