@<TRIPOS>MOLECULE
C2Q
   50    53     1     0     0
SMALL
bcc


@<TRIPOS>ATOM
      1 C01          6.1050     1.5960    -1.2190 c3         1 C2Q      -0.052800
      2 C02          4.8660     0.7690    -1.0430 ca         1 C2Q      -0.042300
      3 C03          4.3870     0.0060    -2.0740 ca         1 C2Q      -0.137000
      4 C04          3.2310    -0.7860    -1.9300 ca         1 C2Q      -0.108000
      5 C05          2.5330    -0.8230    -0.7540 ca         1 C2Q      -0.094300
      6 C06          1.3080    -1.6860    -0.6410 c3         1 C2Q       0.014100
      7 C07         -0.0040    -0.9300    -0.6290 cc         1 C2Q       0.014800
      8 C08         -0.0500     0.3470    -1.0990 cd         1 C2Q      -0.231200
      9 C09         -1.2420     1.1460    -1.1370 c          1 C2Q       0.718700
     10 O10         -1.3100     2.2940    -1.5540 o          1 C2Q      -0.561500
     11 N11         -2.3740     0.5020    -0.6600 n          1 C2Q      -0.260000
     12 C12         -2.3540    -0.7460    -0.1580 cd         1 C2Q       0.248200
     13 S13         -3.9140    -1.2210     0.4690 ss         1 C2Q      -0.298700
     14 C14         -4.6970     0.1600    -0.4300 c5         1 C2Q       0.051700
     15 C15         -3.6190     1.2290    -0.4440 c5         1 C2Q      -0.094300
     16 C16         -3.5640     2.0350     0.8900 c          1 C2Q       0.939600
     17 O17         -4.6190     2.6350     1.1530 o          1 C2Q      -0.776300
     18 O18         -2.5060     1.9920     1.5290 o          1 C2Q      -0.776300
     19 C19         -1.2210    -1.5090    -0.1620 cc         1 C2Q      -0.220000
     20 N20         -1.3510    -2.8780     0.3400 nx         1 C2Q      -0.515200
     21 C21         -0.8070    -3.9520    -0.5490 c3         1 C2Q       0.109100
     22 C22         -0.8960    -3.0340     1.7540 c3         1 C2Q       0.109100
     23 C23          2.9940    -0.0430     0.3460 ca         1 C2Q      -0.018000
     24 C24          2.3210    -0.0340     1.5900 ca         1 C2Q      -0.124000
     25 C25          2.7770     0.7150     2.6410 ca         1 C2Q      -0.106000
     26 C26          3.9330     1.5030     2.4960 ca         1 C2Q      -0.120000
     27 C27          4.6070     1.5170     1.3050 ca         1 C2Q      -0.114000
     28 C28          4.1640     0.7530     0.1990 ca         1 C2Q      -0.032000
     29 H013         5.9230     2.6530    -1.0160 hc         1 C2Q       0.047033
     30 H012         6.9020     1.2740    -0.5460 hc         1 C2Q       0.047033
     31 H011         6.4790     1.5150    -2.2380 hc         1 C2Q       0.047033
     32 H031         4.9040     0.0060    -3.0260 ha         1 C2Q       0.133000
     33 H041         2.8920    -1.3760    -2.7730 ha         1 C2Q       0.125000
     34 H061         1.2950    -2.3690    -1.4940 hc         1 C2Q       0.041200
     35 H062         1.3960    -2.3170     0.2450 hc         1 C2Q       0.041200
     36 H081         0.8500     0.8230    -1.4620 ha         1 C2Q       0.177000
     37 H141        -4.9710    -0.1810    -1.4270 h1         1 C2Q       0.095700
     38 H142        -5.5840     0.4780     0.1090 h1         1 C2Q       0.095700
     39 H151        -3.7850     1.9110    -1.2780 h1         1 C2Q       0.116700
     40 H212         0.2660    -4.0350    -0.4300 hx         1 C2Q       0.090033
     41 H211        -1.2720    -4.8860    -0.2490 hx         1 C2Q       0.090033
     42 H213        -1.0660    -3.7200    -1.5770 hx         1 C2Q       0.090033
     43 H223        -1.4140    -2.3050     2.3700 hx         1 C2Q       0.090033
     44 H222        -1.1340    -4.0400     2.0860 hx         1 C2Q       0.090033
     45 H221         0.1750    -2.8730     1.8120 hx         1 C2Q       0.090033
     46 H241         1.4290    -0.6300     1.7270 ha         1 C2Q       0.121000
     47 H251         2.2460     0.7020     3.5840 ha         1 C2Q       0.138000
     48 H261         4.2880     2.0970     3.3280 ha         1 C2Q       0.136000
     49 H271         5.4940     2.1290     1.2100 ha         1 C2Q       0.133000
     50 H201        -2.3560    -3.0770     0.3530 hn         1 C2Q       0.438800
@<TRIPOS>BOND
     1     1     2 1   
     2     1    29 1   
     3     1    30 1   
     4     1    31 1   
     5     2     3 ar  
     6     2    28 ar  
     7     3     4 ar  
     8     3    32 1   
     9     4     5 ar  
    10     4    33 1   
    11     5     6 1   
    12     5    23 ar  
    13     6     7 1   
    14     6    34 1   
    15     6    35 1   
    16     7     8 2   
    17     7    19 1   
    18     8     9 1   
    19     8    36 1   
    20     9    10 2   
    21     9    11 1   
    22    11    12 1   
    23    11    15 1   
    24    12    13 1   
    25    12    19 2   
    26    13    14 1   
    27    14    15 1   
    28    14    37 1   
    29    14    38 1   
    30    15    16 1   
    31    15    39 1   
    32    16    17 1   
    33    16    18 1   
    34    19    20 1   
    35    20    21 1   
    36    20    22 1   
    37    20    50 1   
    38    21    40 1   
    39    21    41 1   
    40    21    42 1   
    41    22    43 1   
    42    22    44 1   
    43    22    45 1   
    44    23    24 ar  
    45    23    28 ar  
    46    24    25 ar  
    47    24    46 1   
    48    25    26 ar  
    49    25    47 1   
    50    26    27 ar  
    51    26    48 1   
    52    27    28 ar  
    53    27    49 1   
@<TRIPOS>SUBSTRUCTURE
     1 C2Q         1 TEMP              0 ****  ****    0 ROOT
