@<TRIPOS>MOLECULE
C2Q
   50    53     1     0     0
SMALL
No Charge or Current Charge


@<TRIPOS>ATOM
      1 C01          6.2310     1.5990    -1.0850 c3         1 C2Q      -0.052800
      2 C02          4.9540     0.7680    -0.9660 ca         1 C2Q      -0.042300
      3 C03          4.5070     0.0630    -2.0970 ca         1 C2Q      -0.119000
      4 C04          3.3430    -0.7130    -2.0420 ca         1 C2Q      -0.090000
      5 C05          2.5940    -0.8050    -0.8550 ca         1 C2Q      -0.094300
      6 C06          1.3270    -1.6660    -0.8640 c3         1 C2Q       0.014100
      7 C07          0.0410    -0.8740    -0.7690 cc         1 C2Q       0.014800
      8 C08         -0.0890     0.4120    -1.2730 cd         1 C2Q      -0.281200
      9 C09         -1.3280     1.2160    -1.2270 c          1 C2Q       0.576200
     10 O10         -1.3960     2.3500    -1.6820 o          1 C2Q      -0.486000
     11 N11         -2.4220     0.5620    -0.6430 n          1 C2Q      -0.193000
     12 C12         -2.2700    -0.6800    -0.0950 cd         1 C2Q       0.248200
     13 S13         -3.7580    -1.2640     0.6430 ss         1 C2Q      -0.346600
     14 C14         -4.7160     0.0170    -0.3080 c5         1 C2Q       0.099600
     15 C15         -3.7470     1.2270    -0.5020 c5         1 C2Q      -0.094300
     16 C16         -3.8730     2.1700     0.7220 c          1 C2Q       0.729000
     17 O17         -4.8840     2.8510     0.8190 o          1 C2Q      -0.671000
     18 O18         -2.9480     2.2640     1.5160 o          1 C2Q      -0.671000
     19 C19         -1.1240    -1.4520    -0.1380 cc         1 C2Q      -0.220000
     20 N20         -1.2960    -2.8210     0.5130 nx         1 C2Q      -0.514000
     21 C21         -1.0720    -3.9750    -0.4650 c3         1 C2Q       0.080900
     22 C22         -0.5580    -2.9510     1.8480 c3         1 C2Q       0.080900
     23 C23          3.0280    -0.0960     0.2970 ca         1 C2Q      -0.018000
     24 C24          2.2980    -0.1550     1.5090 ca         1 C2Q      -0.106000
     25 C25          2.7290     0.5470     2.6440 ca         1 C2Q      -0.088000
     26 C26          3.8950     1.3200     2.5880 ca         1 C2Q      -0.102000
     27 C27          4.6320     1.3930     1.3960 ca         1 C2Q      -0.096000
     28 C28          4.2120     0.6920     0.2400 ca         1 C2Q      -0.032000
     29 H013         6.0340     2.6580    -0.8820 hc         1 C2Q       0.047033
     30 H012         6.9950     1.2520    -0.3790 hc         1 C2Q       0.047033
     31 H011         6.6680     1.5370    -2.0890 hc         1 C2Q       0.047033
     32 H031         5.0650     0.1130    -3.0290 ha         1 C2Q       0.115000
     33 H041         3.0220    -1.2460    -2.9350 ha         1 C2Q       0.107000
     34 H061         1.2870    -2.2690    -1.7790 hc         1 C2Q       0.041200
     35 H062         1.3940    -2.3970    -0.0530 hc         1 C2Q       0.041200
     36 H081         0.7370     0.9190    -1.7540 ha         1 C2Q       0.227000
     37 H141        -4.9890    -0.4100    -1.2820 h1         1 C2Q       0.095700
     38 H142        -5.6460     0.2850     0.2110 h1         1 C2Q       0.095700
     39 H151        -4.0120     1.8110    -1.3910 h1         1 C2Q       0.116700
     40 H212        -0.0220    -4.0030    -0.7580 hx         1 C2Q       0.090033
     41 H211        -1.3420    -4.9200     0.0130 hx         1 C2Q       0.090033
     42 H213        -1.6920    -3.8230    -1.3520 hx         1 C2Q       0.090033
     43 H223        -0.8260    -2.1100     2.4920 hx         1 C2Q       0.090033
     44 H222        -0.8410    -3.8880     2.3330 hx         1 C2Q       0.090033
     45 H221         0.5190    -2.9450     1.6760 hx         1 C2Q       0.090033
     46 H241         1.3880    -0.7400     1.5900 ha         1 C2Q       0.103000
     47 H251         2.1570     0.4920     3.5670 ha         1 C2Q       0.120000
     48 H261         4.2290     1.8640     3.4680 ha         1 C2Q       0.118000
     49 H271         5.5310     2.0030     1.3900 ha         1 C2Q       0.115000
     50 H201        -2.3160    -2.8490     0.7550 hn         1 C2Q       0.494000
@<TRIPOS>BOND
     1     1     2 1   
     2     1    29 1   
     3     1    30 1   
     4     1    31 1   
     5     2     3 ar  
     6     2    28 ar  
     7     3     4 ar  
     8     3    32 1   
     9     4     5 ar  
    10     4    33 1   
    11     5     6 1   
    12     5    23 ar  
    13     6     7 1   
    14     6    34 1   
    15     6    35 1   
    16     7     8 2   
    17     7    19 1   
    18     8     9 1   
    19     8    36 1   
    20     9    10 2   
    21     9    11 1   
    22    11    12 1   
    23    11    15 1   
    24    12    13 1   
    25    12    19 2   
    26    13    14 1   
    27    14    15 1   
    28    14    37 1   
    29    14    38 1   
    30    15    16 1   
    31    15    39 1   
    32    16    17 1   
    33    16    18 1   
    34    19    20 1   
    35    20    21 1   
    36    20    22 1   
    37    20    50 1   
    38    21    40 1   
    39    21    41 1   
    40    21    42 1   
    41    22    43 1   
    42    22    44 1   
    43    22    45 1   
    44    23    24 ar  
    45    23    28 ar  
    46    24    25 ar  
    47    24    46 1   
    48    25    26 ar  
    49    25    47 1   
    50    26    27 ar  
    51    26    48 1   
    52    27    28 ar  
    53    27    49 1   
@<TRIPOS>SUBSTRUCTURE
     1 C2Q         1 TEMP              0 ****  ****    0 ROOT
