@<TRIPOS>MOLECULE
C2R
   33    34     1     0     0
SMALL
abcg2


@<TRIPOS>ATOM
      1 PA           4.5490    -1.0820    -0.2230 p5         1 C2R       1.276900
      2 O1A          4.3610    -1.9580     1.0110 o          1 C2R      -0.929500
      3 O2A          4.8670    -1.8300    -1.5100 o          1 C2R      -0.929500
      4 O3A          5.3880     0.1680     0.0240 o          1 C2R      -0.929500
      5 O5           2.9860    -0.4900    -0.5830 os         1 C2R      -0.563400
      6 C2          -0.7220     2.3230     0.0800 c5         1 C2R       0.073300
      7 O2          -0.4640     3.4170    -0.7580 oh         1 C2R      -0.724000
      8 C3           0.5260     1.9410     0.8830 c5         1 C2R       0.082300
      9 O3           1.2490     3.0430     1.3590 oh         1 C2R      -0.703000
     10 C5           2.3100     0.1760     0.4350 c3         1 C2R       0.259600
     11 C4           1.3400     1.1740    -0.1530 c5         1 C2R       0.150300
     12 O4           0.3620     0.5100    -0.9550 os         1 C2R      -0.405000
     13 C1          -0.9020     1.0840    -0.7990 c5         1 C2R       0.307300
     14 N1          -1.8040     0.1120    -0.2110 na         1 C2R      -0.220500
     15 C8          -3.1520     0.0550    -0.4330 cc         1 C2R       0.119000
     16 C9          -3.6140    -1.0160     0.3020 cd         1 C2R       0.149500
     17 N3          -2.5570    -1.5960     0.9650 nd         1 C2R      -0.654000
     18 C7          -1.5040    -0.9060     0.6520 cc         1 C2R       0.378400
     19 N5          -3.7870     0.9040    -1.3170 nv         1 C2R      -1.041000
     20 C6          -5.0240    -1.4900     0.3760 c          1 C2R       0.639500
     21 O7          -5.2770    -2.4650     1.1070 o          1 C2R      -0.751500
     22 O8          -5.8550    -0.8500    -0.3180 o          1 C2R      -0.751500
     23 H3           0.1170     4.0230    -0.2800 ho         1 C2R       0.506000
     24 H1           0.8630     3.3320     2.1920 ho         1 C2R       0.479000
     25 H5'1         2.9890     0.7430     1.0880 h1         1 C2R      -0.000300
     26 H5'2         1.7620    -0.5220     1.0900 h1         1 C2R      -0.000300
     27 H4           1.8970     1.8860    -0.7760 h1         1 C2R       0.067700
     28 H7          -1.3260     1.3560    -1.7720 h2         1 C2R       0.087700
     29 H2          -0.5000    -1.0870     1.0040 h5         1 C2R       0.068100
     30 HN51        -3.6540     1.8870    -1.1230 hn         1 C2R       0.429000
     31 HN52        -4.7760     0.6810    -1.3080 hn         1 C2R       0.429000
     32 H8          -1.5980     2.4990     0.7190 h1         1 C2R       0.038700
     33 H6           0.2360     1.2700     1.7040 h1         1 C2R       0.058700
@<TRIPOS>BOND
     1     1     2 1   
     2     1     3 1   
     3     1     4 1   
     4     1     5 1   
     5     5    10 1   
     6     6     7 1   
     7     6     8 1   
     8     6    13 1   
     9     6    32 1   
    10     7    23 1   
    11     8     9 1   
    12     8    11 1   
    13     8    33 1   
    14     9    24 1   
    15    10    11 1   
    16    10    25 1   
    17    10    26 1   
    18    11    12 1   
    19    11    27 1   
    20    12    13 1   
    21    13    14 1   
    22    13    28 1   
    23    14    15 1   
    24    14    18 1   
    25    15    16 2   
    26    15    19 1   
    27    16    17 1   
    28    16    20 1   
    29    17    18 2   
    30    18    29 1   
    31    19    30 1   
    32    19    31 1   
    33    20    21 1   
    34    20    22 1   
@<TRIPOS>SUBSTRUCTURE
     1 C2R         1 TEMP              0 ****  ****    0 ROOT
