@<TRIPOS>MOLECULE
C2R
   33    34     1     0     0
SMALL
No Charge or Current Charge


@<TRIPOS>ATOM
      1 PA           3.9750    -0.4770    -1.4530 p5         1 C2R       1.276900
      2 O1A          5.1900    -0.0200    -0.7240 o          1 C2R      -0.929500
      3 O2A          4.3550    -1.5790    -2.3780 o          1 C2R      -0.929500
      4 O3A          3.4050     0.6440    -2.2460 o          1 C2R      -0.929500
      5 O5           2.8970    -1.0480    -0.4000 os         1 C2R      -0.563400
      6 C2          -0.4070     2.3230     0.7030 c5         1 C2R       0.073300
      7 O2           0.0770     3.4620    -0.0250 oh         1 C2R      -0.724000
      8 C3           0.7870     1.6460     1.4370 c5         1 C2R       0.082300
      9 O3           1.6950     2.6250     1.9750 oh         1 C2R      -0.703000
     10 C5           2.4210    -0.2580     0.7070 c3         1 C2R       0.259600
     11 C4           1.3790     0.8140     0.2630 c5         1 C2R       0.150300
     12 O4           0.1970     0.1960    -0.3000 os         1 C2R      -0.405000
     13 C1          -0.8980     1.1440    -0.2280 c5         1 C2R       0.307300
     14 N1          -2.1080     0.4260     0.1960 na         1 C2R      -0.220500
     15 C8          -3.1030    -0.0850    -0.6070 cc         1 C2R       0.119000
     16 C9          -4.0840    -0.5890     0.2410 cd         1 C2R       0.149500
     17 N3          -3.6820    -0.3780     1.5660 nd         1 C2R      -0.654000
     18 C7          -2.5060     0.2270     1.5010 cc         1 C2R       0.378400
     19 N5          -3.0000    -0.0360    -1.9780 nv         1 C2R      -1.041000
     20 C6          -5.3660    -1.2570    -0.2540 c          1 C2R       0.639500
     21 O7          -6.1730    -1.6660     0.5750 o          1 C2R      -0.751500
     22 O8          -5.5790    -1.3840    -1.4550 o          1 C2R      -0.751500
     23 H3           0.9170     3.6920     0.4470 ho         1 C2R       0.506000
     24 H1           1.4380     2.7850     2.9140 ho         1 C2R       0.479000
     25 H5'1         3.2580     0.2490     1.2040 h1         1 C2R      -0.000300
     26 H5'2         1.9520    -0.9140     1.4520 h1         1 C2R      -0.000300
     27 H4           1.8270     1.4780    -0.4850 h1         1 C2R       0.067700
     28 H7          -1.1100     1.5470    -1.2250 h2         1 C2R       0.087700
     29 H2          -1.9070     0.5420     2.3470 h5         1 C2R       0.068100
     30 HN51        -2.0890     0.0830    -2.4150 hn         1 C2R       0.429000
     31 HN52        -3.7180    -0.5150    -2.5260 hn         1 C2R       0.429000
     32 H8          -1.1870     2.6380     1.4100 h1         1 C2R       0.038700
     33 H6           0.4300     0.9740     2.2310 h1         1 C2R       0.058700
@<TRIPOS>BOND
     1     1     2 1   
     2     1     3 1   
     3     1     4 1   
     4     1     5 1   
     5     5    10 1   
     6     6     7 1   
     7     6     8 1   
     8     6    13 1   
     9     6    32 1   
    10     7    23 1   
    11     8     9 1   
    12     8    11 1   
    13     8    33 1   
    14     9    24 1   
    15    10    11 1   
    16    10    25 1   
    17    10    26 1   
    18    11    12 1   
    19    11    27 1   
    20    12    13 1   
    21    13    14 1   
    22    13    28 1   
    23    14    15 1   
    24    14    18 1   
    25    15    16 2   
    26    15    19 1   
    27    16    17 1   
    28    16    20 1   
    29    17    18 2   
    30    18    29 1   
    31    19    30 1   
    32    19    31 1   
    33    20    21 1   
    34    20    22 1   
@<TRIPOS>SUBSTRUCTURE
     1 C2R         1 TEMP              0 ****  ****    0 ROOT
