@<TRIPOS>MOLECULE
C2T
   27    26     1     0     0
SMALL
bcc


@<TRIPOS>ATOM
      1 C1          -3.2350     0.2550    -0.0510 c          1 C2T       0.937600
      2 N1           0.5600     0.6090    -0.0790 n7         1 C2T      -0.575000
      3 O1          -4.1850     1.0590     0.0110 o          1 C2T      -0.805800
      4 C2          -1.8270     0.8850    -0.0380 c3         1 C2T      -0.223400
      5 N2           1.7720    -0.1690     0.0090 n4         1 C2T      -0.401600
      6 O2          -3.3080    -0.9860    -0.1280 o          1 C2T      -0.805800
      7 C3          -0.7010    -0.1340    -0.0340 c3         1 C2T       0.130800
      8 C4           1.8690    -0.9710     1.2610 c3         1 C2T       0.097100
      9 C5           1.8500    -1.0650    -1.1750 c3         1 C2T       0.097100
     10 C6           2.8810     0.8570    -0.0530 c3         1 C2T       0.138800
     11 C10          4.2850     0.3020     0.0180 c3         1 C2T      -0.123100
     12 H21C        -1.7270     1.5390    -0.9100 hc         1 C2T       0.039700
     13 H22C        -1.7460     1.5390     0.8370 hc         1 C2T       0.039700
     14 HA           0.5960     1.2510     0.7080 hn         1 C2T       0.376800
     15 H31C        -0.7820    -0.7630    -0.9180 h1         1 C2T       0.069700
     16 H32C        -0.7920    -0.7790     0.8450 h1         1 C2T       0.069700
     17 H41C         1.0560    -1.6890     1.2960 hx         1 C2T       0.091700
     18 H42C         2.8100    -1.5130     1.2740 hx         1 C2T       0.091700
     19 H43C         1.8150    -0.3010     2.1150 hx         1 C2T       0.091700
     20 H51C         1.7640    -0.4610    -2.0730 hx         1 C2T       0.091700
     21 H52C         2.8000    -1.5890    -1.1610 hx         1 C2T       0.091700
     22 H53C         1.0500    -1.7970    -1.1330 hx         1 C2T       0.091700
     23 H61C         2.7190     1.4040    -0.9800 hx         1 C2T       0.094700
     24 H62C         2.7060     1.5380     0.7800 hx         1 C2T       0.094700
     25 H101         4.9630     1.1480    -0.0850 hc         1 C2T       0.065367
     26 H102         4.5080    -0.1750     0.9710 hc         1 C2T       0.065367
     27 H103         4.5140    -0.3910    -0.7900 hc         1 C2T       0.065367
@<TRIPOS>BOND
     1     1     3 1   
     2     1     4 1   
     3     1     6 1   
     4     2     5 1   
     5     2     7 1   
     6     2    14 1   
     7     4     7 1   
     8     4    12 1   
     9     4    13 1   
    10     5     8 1   
    11     5     9 1   
    12     5    10 1   
    13     7    15 1   
    14     7    16 1   
    15     8    17 1   
    16     8    18 1   
    17     8    19 1   
    18     9    20 1   
    19     9    21 1   
    20     9    22 1   
    21    10    11 1   
    22    10    23 1   
    23    10    24 1   
    24    11    25 1   
    25    11    26 1   
    26    11    27 1   
@<TRIPOS>SUBSTRUCTURE
     1 C2T         1 TEMP              0 ****  ****    0 ROOT
