@<TRIPOS>MOLECULE
C2T
   27    26     1     0     0
SMALL
No Charge or Current Charge


@<TRIPOS>ATOM
      1 C1          -3.2820     0.2300    -0.1510 c          1 C2T       0.727000
      2 N1           0.4940     0.5950    -0.0650 n7         1 C2T      -0.630200
      3 O1          -3.8130     0.0560     0.9350 o          1 C2T      -0.700500
      4 C2          -1.9340     0.9530    -0.1820 c3         1 C2T      -0.223400
      5 N2           1.7970    -0.1510     0.0450 n4         1 C2T      -0.317000
      6 O2          -3.7340    -0.1880    -1.2060 o          1 C2T      -0.700500
      7 C3          -0.8150    -0.0860    -0.0220 c3         1 C2T       0.130800
      8 C4           1.8840    -0.8600     1.4060 c3         1 C2T       0.068900
      9 C5           1.8800    -1.1940    -1.0790 c3         1 C2T       0.068900
     10 C6           2.9530     0.8580    -0.1010 c3         1 C2T       0.110600
     11 C10          4.3970     0.3160    -0.0420 c3         1 C2T      -0.123100
     12 H21C        -1.7750     1.4270    -1.1580 hc         1 C2T       0.039700
     13 H22C        -1.8460     1.6370     0.6700 hc         1 C2T       0.039700
     14 HA           0.5060     1.3110     0.6770 hn         1 C2T       0.432000
     15 H31C        -0.8910    -0.8270    -0.8300 h1         1 C2T       0.069700
     16 H32C        -0.9460    -0.6170     0.9310 h1         1 C2T       0.069700
     17 H41C         1.0460    -1.5530     1.5020 hx         1 C2T       0.091700
     18 H42C         2.8240    -1.4120     1.4650 hx         1 C2T       0.091700
     19 H43C         1.8420    -0.1160     2.2030 hx         1 C2T       0.091700
     20 H51C         1.8140    -0.6830    -2.0410 hx         1 C2T       0.091700
     21 H52C         2.8270    -1.7310    -1.0070 hx         1 C2T       0.091700
     22 H53C         1.0510    -1.8960    -0.9770 hx         1 C2T       0.091700
     23 H61C         2.8130     1.3650    -1.0580 hx         1 C2T       0.094700
     24 H62C         2.8340     1.6040     0.6880 hx         1 C2T       0.094700
     25 H101         5.1100     1.1410    -0.1540 hc         1 C2T       0.065367
     26 H102         4.5950    -0.1730     0.9190 hc         1 C2T       0.065367
     27 H103         4.5830    -0.4030    -0.8470 hc         1 C2T       0.065367
@<TRIPOS>BOND
     1     1     3 1   
     2     1     4 1   
     3     1     6 1   
     4     2     5 1   
     5     2     7 1   
     6     2    14 1   
     7     4     7 1   
     8     4    12 1   
     9     4    13 1   
    10     5     8 1   
    11     5     9 1   
    12     5    10 1   
    13     7    15 1   
    14     7    16 1   
    15     8    17 1   
    16     8    18 1   
    17     8    19 1   
    18     9    20 1   
    19     9    21 1   
    20     9    22 1   
    21    10    11 1   
    22    10    23 1   
    23    10    24 1   
    24    11    25 1   
    25    11    26 1   
    26    11    27 1   
@<TRIPOS>SUBSTRUCTURE
     1 C2T         1 TEMP              0 ****  ****    0 ROOT
