@<TRIPOS>MOLECULE
C2U
   15    15     1     0     0
SMALL
No Charge or Current Charge


@<TRIPOS>ATOM
      1 O7B          2.4500     2.3630     0.0700 o          1 C2U      -0.683000
      2 C7           2.3380     1.1480     0.1070 c          1 C2U       0.727600
      3 O7A          3.2920     0.3840     0.1750 o          1 C2U      -0.683000
      4 C6           0.9510     0.5480     0.0700 ca         1 C2U      -0.273600
      5 C1          -0.1800     1.3980    -0.0090 ca         1 C2U      -0.016000
      6 C5           0.7400    -0.8520     0.1100 ca         1 C2U       0.236100
      7 O5           1.8100    -1.6960     0.1850 oh         1 C2U      -0.612100
      8 C4          -0.5710    -1.3820     0.0720 ca         1 C2U       0.018000
      9 Cl4         -0.8580    -3.1250     0.1220 cl         1 C2U      -0.234000
     10 C3          -1.6770    -0.5210    -0.0050 ca         1 C2U      -0.063000
     11 C2          -1.4790     0.8660    -0.0450 ca         1 C2U       0.034000
     12 Cl2         -2.8660     1.9440    -0.1420 cl         1 C2U      -0.259000
     13 H1          -0.0600     2.4790    -0.0410 ha         1 C2U       0.139000
     14 HO5          2.6030    -1.0860     0.1970 ho         1 C2U       0.555000
     15 H3          -2.6840    -0.9280    -0.0330 ha         1 C2U       0.115000
@<TRIPOS>BOND
     1     1     2 1   
     2     2     3 1   
     3     2     4 1   
     4     4     5 ar  
     5     4     6 ar  
     6     5    11 ar  
     7     5    13 1   
     8     6     7 1   
     9     6     8 ar  
    10     7    14 1   
    11     8     9 1   
    12     8    10 ar  
    13    10    11 ar  
    14    10    15 1   
    15    11    12 1   
@<TRIPOS>SUBSTRUCTURE
     1 C2U         1 TEMP              0 ****  ****    0 ROOT
