@<TRIPOS>MOLECULE
C2U
   15    15     1     0     0
SMALL
bcc


@<TRIPOS>ATOM
      1 O7B          2.4610     2.3460     0.0740 o          1 C2U      -0.788300
      2 C7           2.3100     1.1260     0.1070 c          1 C2U       0.938200
      3 O7A          3.2440     0.2650     0.1690 o          1 C2U      -0.788300
      4 C6           0.9130     0.5540     0.0700 ca         1 C2U      -0.273600
      5 C1          -0.1920     1.3910    -0.0070 ca         1 C2U      -0.034000
      6 C5           0.7420    -0.8430     0.1120 ca         1 C2U       0.236100
      7 O5           1.7740    -1.6610     0.1840 oh         1 C2U      -0.573100
      8 C4          -0.5640    -1.3480     0.0730 ca         1 C2U      -0.073600
      9 CL4         -0.7830    -3.0620     0.1230 cl         1 C2U      -0.142400
     10 C3          -1.6640    -0.5160    -0.0050 ca         1 C2U      -0.081000
     11 C2          -1.4650     0.8570    -0.0440 ca         1 C2U      -0.057600
     12 CL2         -2.8450     1.9070    -0.1440 cl         1 C2U      -0.167400
     13 H1          -0.0430     2.4620    -0.0380 ha         1 C2U       0.157000
     14 HO5          2.5830    -1.0060     0.1920 ho         1 C2U       0.516000
     15 H3          -2.6610    -0.9340    -0.0340 ha         1 C2U       0.133000
@<TRIPOS>BOND
     1     1     2 1   
     2     2     3 1   
     3     2     4 1   
     4     4     5 ar  
     5     4     6 ar  
     6     5    11 ar  
     7     5    13 1   
     8     6     7 1   
     9     6     8 ar  
    10     7    14 1   
    11     8     9 1   
    12     8    10 ar  
    13    10    11 ar  
    14    10    15 1   
    15    11    12 1   
@<TRIPOS>SUBSTRUCTURE
     1 C2U         1 TEMP              0 ****  ****    0 ROOT
