@<TRIPOS>MOLECULE
C2V
   49    52     1     0     0
SMALL
abcg2


@<TRIPOS>ATOM
      1 C10         -5.0420     1.4280     0.1300 cc         1 C2V      -0.167000
      2 C15          2.3110     0.0290    -0.0720 ca         1 C2V      -0.152600
      3 C17         -6.4360    -2.9660     0.6720 cc         1 C2V      -0.232000
      4 C22          6.0760     0.1210     0.3010 c3         1 C2V       0.099000
      5 C24          2.0810    -1.2300    -0.6230 ca         1 C2V      -0.084000
      6 C26          6.9320    -1.1130     0.0400 c3         1 C2V       0.150800
      7 C28          9.0200    -2.1380     0.6100 c3         1 C2V       0.149600
      8 C03         -1.0520     1.6340    -0.3750 cd         1 C2V      -0.082300
      9 C04         -3.0280     2.6320    -0.2030 cd         1 C2V      -0.129000
     10 C05         -4.2670     0.2310     0.1260 cc         1 C2V       0.418500
     11 C07         -0.9600     3.0100    -0.4690 cc         1 C2V      -0.032400
     12 C08         -0.0130     0.6160    -0.4440 ca         1 C2V      -0.020800
     13 C09         -4.8800    -1.0810     0.3120 cc         1 C2V      -0.297500
     14 C11         -4.4220     2.6260    -0.0300 cd         1 C2V      -0.013000
     15 C14          1.2600     0.9320     0.0310 ca         1 C2V      -0.046000
     16 C16         -4.2500    -2.2970     0.3340 cd         1 C2V      -0.081000
     17 C19         -5.1430    -3.3760     0.5390 cd         1 C2V      -0.139000
     18 C23         -0.2260    -0.6480    -1.0020 ca         1 C2V      -0.065000
     19 C25          0.8140    -1.5600    -1.0800 ca         1 C2V      -0.124000
     20 C27          9.0150    -0.1090    -0.6320 c3         1 C2V       0.149600
     21 N01         -2.3910     1.4060    -0.2060 na         1 C2V       0.256900
     22 N02         -2.9710     0.2280    -0.0360 nd         1 C2V      -0.478800
     23 N06         -2.1610     3.6130    -0.3650 nc         1 C2V      -0.260600
     24 N20          4.7100    -0.1430    -0.0970 ns         1 C2V      -0.506900
     25 N21          8.3240    -0.8900     0.3730 n3         1 C2V      -0.711600
     26 O18          3.7310     1.2560     1.3800 o          1 C2V      -0.596100
     27 S13         -6.5780    -1.2680     0.5480 ss         1 C2V       0.229000
     28 H1          -6.1140     1.3880     0.2610 ha         1 C2V       0.137000
     29 H2          -7.3140    -3.5710     0.8370 h4         1 C2V       0.154000
     30 H3           6.0980     0.3570     1.3640 h1         1 C2V       0.062700
     31 H4           6.4630     0.9940    -0.2320 h1         1 C2V       0.062700
     32 H5           2.8690    -1.9700    -0.6750 ha         1 C2V       0.113000
     33 H6           6.5500    -1.9240     0.6640 h1         1 C2V       0.032200
     34 H7           6.8060    -1.4410    -1.0080 h1         1 C2V       0.032200
     35 H8           9.0440    -2.7960    -0.2730 h1         1 C2V       0.031867
     36 H9          10.0520    -1.9380     0.9010 h1         1 C2V       0.031867
     37 H10          8.5450    -2.6880     1.4240 h1         1 C2V       0.031867
     38 H11         -0.0560     3.5790    -0.6290 h4         1 C2V       0.234000
     39 H12         -4.9660     3.5600    -0.0260 ha         1 C2V       0.150000
     40 H13          1.4350     1.8960     0.4900 ha         1 C2V       0.139000
     41 H14         -3.1830    -2.4110     0.2090 ha         1 C2V       0.150000
     42 H15         -4.8390    -4.4110     0.5870 ha         1 C2V       0.139000
     43 H16         -1.2000    -0.9240    -1.3800 ha         1 C2V       0.129000
     44 H17          0.6330    -2.5400    -1.5020 ha         1 C2V       0.116000
     45 H18          8.5130     0.8420    -0.8060 h1         1 C2V       0.031867
     46 H19         10.0280     0.1170    -0.2950 h1         1 C2V       0.031867
     47 H20          9.0910    -0.6280    -1.6010 h1         1 C2V       0.031867
     48 H21          4.5790    -0.6670    -0.9480 hn         1 C2V       0.310500
     49 C12          3.6440     0.4400     0.4720 c          1 C2V       0.613700
@<TRIPOS>BOND
     1     1    10 1   
     2     1    14 2   
     3     1    28 1   
     4     2     5 ar  
     5     2    15 ar  
     6     2    49 1   
     7     3    17 2   
     8     3    27 1   
     9     3    29 1   
    10     4     6 1   
    11     4    24 1   
    12     4    30 1   
    13     4    31 1   
    14     5    19 ar  
    15     5    32 1   
    16     6    25 1   
    17     6    33 1   
    18     6    34 1   
    19     7    25 1   
    20     7    35 1   
    21     7    36 1   
    22     7    37 1   
    23     8    11 2   
    24     8    12 1   
    25     8    21 1   
    26     9    14 1   
    27     9    21 1   
    28     9    23 2   
    29    10    13 1   
    30    10    22 2   
    31    11    23 1   
    32    11    38 1   
    33    12    15 ar  
    34    12    18 ar  
    35    13    16 2   
    36    13    27 1   
    37    14    39 1   
    38    15    40 1   
    39    16    17 1   
    40    16    41 1   
    41    17    42 1   
    42    18    19 ar  
    43    18    43 1   
    44    19    44 1   
    45    20    25 1   
    46    20    45 1   
    47    20    46 1   
    48    20    47 1   
    49    21    22 1   
    50    24    48 1   
    51    24    49 1   
    52    26    49 2   
@<TRIPOS>SUBSTRUCTURE
     1 C2V         1 TEMP              0 ****  ****    0 ROOT
