@<TRIPOS>MOLECULE
C2V
   49    52     1     0     0
SMALL
No Charge or Current Charge


@<TRIPOS>ATOM
      1 C10         -5.2230     1.4750     0.0390 cc         1 C2V      -0.167000
      2 C15          2.4270     0.0710    -0.0350 ca         1 C2V      -0.152600
      3 C17         -7.0100    -2.8260     0.1080 cc         1 C2V      -0.232000
      4 C22          6.2860     0.0930     0.1550 c3         1 C2V       0.099000
      5 C24          2.1810    -1.3150    -0.1570 ca         1 C2V      -0.084000
      6 C26          7.2230    -1.1350     0.0450 c3         1 C2V       0.150800
      7 C28          9.4720    -2.0890     0.3520 c3         1 C2V       0.149600
      8 C03         -1.1280     1.4830    -0.0900 cd         1 C2V      -0.082300
      9 C04         -3.1350     2.5360    -0.0200 cd         1 C2V      -0.129000
     10 C05         -4.4930     0.2210     0.0180 cc         1 C2V       0.418500
     11 C07         -1.0220     2.8670    -0.0540 cc         1 C2V      -0.032400
     12 C08         -0.0120     0.4930    -0.1140 ca         1 C2V      -0.020800
     13 C09         -5.2890    -0.9900     0.0470 cc         1 C2V      -0.297500
     14 C11         -4.5460     2.6690     0.0260 cd         1 C2V      -0.013000
     15 C14          1.3220     0.9550    -0.0170 ca         1 C2V      -0.046000
     16 C16         -4.7440    -2.2570     0.0350 cd         1 C2V      -0.081000
     17 C19         -5.7200    -3.2890     0.0690 cd         1 C2V      -0.139000
     18 C23         -0.2180    -0.9000    -0.2390 ca         1 C2V      -0.065000
     19 C25          0.8670    -1.7900    -0.2590 ca         1 C2V      -0.124000
     20 C27          9.2360     0.0880    -0.7580 c3         1 C2V       0.149600
     21 N01         -2.5070     1.3160    -0.0640 na         1 C2V       0.256900
     22 N02         -3.1590     0.0990    -0.0230 nd         1 C2V      -0.478800
     23 N06         -2.2430     3.5040    -0.0190 nc         1 C2V      -0.260600
     24 N20          4.8670    -0.2710     0.0570 ns         1 C2V      -0.506900
     25 N21          8.6700    -0.8500     0.2430 n3         1 C2V      -0.711600
     26 O18          4.0460     1.8350     0.1810 o          1 C2V      -0.596100
     27 S13         -7.0530    -1.0660     0.1030 ss         1 C2V       0.229000
     28 H1          -6.3030     1.4850     0.0740 ha         1 C2V       0.137000
     29 H2          -7.9380    -3.3820     0.1390 h4         1 C2V       0.154000
     30 H3           6.4560     0.5910     1.1180 h1         1 C2V       0.062700
     31 H4           6.5160     0.8070    -0.6460 h1         1 C2V       0.062700
     32 H5           2.9930    -2.0380    -0.1760 ha         1 C2V       0.113000
     33 H6           6.8960    -1.8630     0.8010 h1         1 C2V       0.032200
     34 H7           7.0680    -1.6040    -0.9360 h1         1 C2V       0.032200
     35 H8           9.4430    -2.6590    -0.5870 h1         1 C2V       0.031867
     36 H9          10.5210    -1.8540     0.5800 h1         1 C2V       0.031867
     37 H10          9.0890    -2.7310     1.1560 h1         1 C2V       0.031867
     38 H11         -0.1220     3.4720    -0.0550 h4         1 C2V       0.234000
     39 H12         -5.0490     3.6310     0.0550 ha         1 C2V       0.150000
     40 H13          1.5150     2.0180     0.0810 ha         1 C2V       0.139000
     41 H14         -3.6770    -2.4640     0.0020 ha         1 C2V       0.150000
     42 H15         -5.4670    -4.3450     0.0650 ha         1 C2V       0.139000
     43 H16         -1.2090    -1.3240    -0.3360 ha         1 C2V       0.129000
     44 H17          0.6860    -2.8580    -0.3580 ha         1 C2V       0.116000
     45 H18          8.7270     1.0600    -0.7250 h1         1 C2V       0.031867
     46 H19         10.3010     0.2680    -0.5600 h1         1 C2V       0.031867
     47 H20          9.1410    -0.3190    -1.7740 h1         1 C2V       0.031867
     48 H21          4.6210    -1.2490    -0.0290 hn         1 C2V       0.310500
     49 C12          3.8300     0.6350     0.0770 c          1 C2V       0.613700
@<TRIPOS>BOND
     1     1    10 1   
     2     1    14 2   
     3     1    28 1   
     4     2     5 ar  
     5     2    15 ar  
     6     2    49 1   
     7     3    17 2   
     8     3    27 1   
     9     3    29 1   
    10     4     6 1   
    11     4    24 1   
    12     4    30 1   
    13     4    31 1   
    14     5    19 ar  
    15     5    32 1   
    16     6    25 1   
    17     6    33 1   
    18     6    34 1   
    19     7    25 1   
    20     7    35 1   
    21     7    36 1   
    22     7    37 1   
    23     8    11 2   
    24     8    12 1   
    25     8    21 1   
    26     9    14 1   
    27     9    21 1   
    28     9    23 2   
    29    10    13 1   
    30    10    22 2   
    31    11    23 1   
    32    11    38 1   
    33    12    15 ar  
    34    12    18 ar  
    35    13    16 2   
    36    13    27 1   
    37    14    39 1   
    38    15    40 1   
    39    16    17 1   
    40    16    41 1   
    41    17    42 1   
    42    18    19 ar  
    43    18    43 1   
    44    19    44 1   
    45    20    25 1   
    46    20    45 1   
    47    20    46 1   
    48    20    47 1   
    49    21    22 1   
    50    24    48 1   
    51    24    49 1   
    52    26    49 2   
@<TRIPOS>SUBSTRUCTURE
     1 C2V         1 TEMP              0 ****  ****    0 ROOT
