@<TRIPOS>MOLECULE
C2W
   60    63     1     0     0
SMALL
No Charge or Current Charge


@<TRIPOS>ATOM
      1 Cl1         -3.3560    -2.2620    -2.7800 cl         1 C2W      -0.186000
      2 CBA         -2.3620    -2.4230    -1.3310 ca         1 C2W       0.100000
      3 CD2         -0.9670    -2.2950    -1.4410 ca         1 C2W      -0.084000
      4 CG          -0.1530    -2.3550    -0.2930 ca         1 C2W      -0.084300
      5 CB           1.3540    -2.1410    -0.4010 c3         1 C2W      -0.036100
      6 CD1         -0.7460    -2.5980     0.9610 ca         1 C2W      -0.084000
      7 CAI         -2.1410    -2.7080     1.0780 ca         1 C2W      -0.128000
      8 CBD         -2.9560    -2.5990    -0.0640 ca         1 C2W       0.117100
      9 OAW         -4.3320    -2.5460     0.0600 os         1 C2W      -0.347100
     10 CAO         -4.9280    -1.6150     0.9910 c3         1 C2W       0.164600
     11 CAM         -4.5720    -0.1770     0.5310 c3         1 C2W      -0.117400
     12 CAN         -4.6500     0.8940     1.6480 c3         1 C2W      -0.074400
     13 CAP         -3.9370     2.2070     1.2530 c3         1 C2W       0.165600
     14 OAX         -2.5330     1.9050     1.1320 os         1 C2W      -0.334100
     15 CBE         -1.6210     2.7450     0.5240 ca         1 C2W       0.160100
     16 CAJ         -2.0010     4.0320     0.0800 ca         1 C2W      -0.173000
     17 CAH         -1.0860     4.8550    -0.5980 ca         1 C2W      -0.138000
     18 CBC          0.2230     4.3980    -0.8420 ca         1 C2W       0.099100
     19 OAV          1.1670     5.1620    -1.4990 os         1 C2W      -0.336100
     20 CAA          0.8800     6.4830    -1.9910 c3         1 C2W       0.147900
     21 CAL          0.6060     3.1220    -0.3990 ca         1 C2W      -0.088000
     22 CBF         -0.3010     2.2790     0.2920 ca         1 C2W      -0.155600
     23 CAY          0.1550     0.9220     0.7870 c          1 C2W       0.634700
     24 OAC         -0.2640     0.4070     1.8140 o          1 C2W      -0.581100
     25 N            1.1690     0.3320     0.0560 ns         1 C2W      -0.494900
     26 CA           1.8770    -0.9250     0.4170 c3         1 C2W       0.034700
     27 C            3.4100    -0.7470     0.2310 c          1 C2W       0.583100
     28 O            3.9040     0.1970    -0.3750 o          1 C2W      -0.571100
     29 NAU          4.1910    -1.7340     0.8020 ns         1 C2W      -0.478900
     30 CBH          5.6340    -1.7750     0.7460 cx         1 C2W       0.091500
     31 CAF          6.2750    -0.8440     1.6680 c1         1 C2W       0.318900
     32 NAB          6.7830    -0.1250     2.4330 n1         1 C2W      -0.437000
     33 CAQ          6.2850    -2.0790    -0.5850 cx         1 C2W      -0.098400
     34 CAR          6.2730    -3.1250     0.5030 cx         1 C2W      -0.098400
     35 H1          -0.5240    -2.1180    -2.4180 ha         1 C2W       0.127000
     36 H2           1.8680    -3.0500    -0.0680 hc         1 C2W       0.060200
     37 H3           1.6410    -2.0030    -1.4510 hc         1 C2W       0.060200
     38 H4          -0.1290    -2.6620     1.8550 ha         1 C2W       0.115000
     39 H5          -2.5830    -2.8550     2.0600 ha         1 C2W       0.127000
     40 H6          -6.0190    -1.7330     1.0150 h1         1 C2W       0.051700
     41 H7          -4.5530    -1.7900     2.0070 h1         1 C2W       0.051700
     42 H8          -3.5560    -0.1620     0.1230 hc         1 C2W       0.061700
     43 H9          -5.2320     0.1090    -0.2970 hc         1 C2W       0.061700
     44 H10         -5.7010     1.1040     1.8800 hc         1 C2W       0.054200
     45 H11         -4.1900     0.5100     2.5670 hc         1 C2W       0.054200
     46 H12         -4.3500     2.5600     0.2990 h1         1 C2W       0.037200
     47 H13         -4.1040     2.9750     2.0190 h1         1 C2W       0.037200
     48 H14         -3.0040     4.4110     0.2500 ha         1 C2W       0.119000
     49 H15         -1.4120     5.8390    -0.9250 ha         1 C2W       0.118000
     50 H16          1.7660     6.9080    -2.4790 h1         1 C2W       0.040033
     51 H17          0.0660     6.4570    -2.7270 h1         1 C2W       0.040033
     52 H18          0.5920     7.1510    -1.1690 h1         1 C2W       0.040033
     53 H19          1.6330     2.8110    -0.5750 ha         1 C2W       0.144000
     54 H20          1.4770     0.8290    -0.7710 hn         1 C2W       0.330500
     55 H21          1.7190    -1.1260     1.4840 h1         1 C2W       0.094700
     56 H22          3.7000    -2.4680     1.3000 hn         1 C2W       0.328500
     57 H23          5.6370    -2.2340    -1.4440 hc         1 C2W       0.087950
     58 H24          7.2330    -1.5980    -0.8150 hc         1 C2W       0.087950
     59 H25          7.2150    -3.3460     1.0010 hc         1 C2W       0.087950
     60 H26          5.6210    -3.9840     0.3700 hc         1 C2W       0.087950
@<TRIPOS>BOND
     1     1     2 1   
     2     2     3 ar  
     3     2     8 ar  
     4     3     4 ar  
     5     3    35 1   
     6     4     5 1   
     7     4     6 ar  
     8     5    26 1   
     9     5    36 1   
    10     5    37 1   
    11     6     7 ar  
    12     6    38 1   
    13     7     8 ar  
    14     7    39 1   
    15     8     9 1   
    16     9    10 1   
    17    10    11 1   
    18    10    40 1   
    19    10    41 1   
    20    11    12 1   
    21    11    42 1   
    22    11    43 1   
    23    12    13 1   
    24    12    44 1   
    25    12    45 1   
    26    13    14 1   
    27    13    46 1   
    28    13    47 1   
    29    14    15 1   
    30    15    16 ar  
    31    15    22 ar  
    32    16    17 ar  
    33    16    48 1   
    34    17    18 ar  
    35    17    49 1   
    36    18    19 1   
    37    18    21 ar  
    38    19    20 1   
    39    20    50 1   
    40    20    51 1   
    41    20    52 1   
    42    21    22 ar  
    43    21    53 1   
    44    22    23 1   
    45    23    24 2   
    46    23    25 1   
    47    25    26 1   
    48    25    54 1   
    49    26    27 1   
    50    26    55 1   
    51    27    28 2   
    52    27    29 1   
    53    29    30 1   
    54    29    56 1   
    55    30    31 1   
    56    30    33 1   
    57    30    34 1   
    58    31    32 3   
    59    33    34 1   
    60    33    57 1   
    61    33    58 1   
    62    34    59 1   
    63    34    60 1   
@<TRIPOS>SUBSTRUCTURE
     1 C2W         1 TEMP              0 ****  ****    0 ROOT
