@<TRIPOS>MOLECULE
C2W
   60    63     1     0     0
SMALL
bcc


@<TRIPOS>ATOM
      1 CL1         -3.4980    -1.7880    -2.6430 cl         1 C2W      -0.094400
      2 CBA         -2.4490    -2.2440    -1.3470 ca         1 C2W       0.008400
      3 CD2         -1.0750    -2.1630    -1.5150 ca         1 C2W      -0.102000
      4 CG          -0.2220    -2.4790    -0.4670 ca         1 C2W      -0.084300
      5 CB           1.2530    -2.2350    -0.5820 c3         1 C2W      -0.036100
      6 CD1         -0.7730    -2.9390     0.7260 ca         1 C2W      -0.102000
      7 CAI         -2.1440    -3.0130     0.8930 ca         1 C2W      -0.146000
      8 CBD         -3.0030    -2.6300    -0.1310 ca         1 C2W       0.117100
      9 OAW         -4.3450    -2.5710     0.0500 os         1 C2W      -0.323900
     10 CAO         -4.7460    -1.5530     0.9820 c3         1 C2W       0.141400
     11 CAM         -4.2920    -0.1680     0.5500 c3         1 C2W      -0.117400
     12 CAN         -4.4380     0.8800     1.6470 c3         1 C2W      -0.074400
     13 CAP         -3.7080     2.1610     1.2920 c3         1 C2W       0.142400
     14 OAX         -2.3180     1.8680     1.2380 os         1 C2W      -0.310900
     15 CBE         -1.4880     2.7060     0.5930 ca         1 C2W       0.160100
     16 CAJ         -1.8410     3.9790     0.1670 ca         1 C2W      -0.191000
     17 CAH         -0.9390     4.7840    -0.5230 ca         1 C2W      -0.156000
     18 CBC          0.3380     4.3220    -0.8080 ca         1 C2W       0.099100
     19 OAV          1.2830     5.0200    -1.4740 os         1 C2W      -0.312900
     20 CAA          0.9520     6.3140    -1.9340 c3         1 C2W       0.124700
     21 CAL          0.6980     3.0460    -0.3790 ca         1 C2W      -0.106000
     22 CBF         -0.1910     2.2430     0.3190 ca         1 C2W      -0.155600
     23 CAY          0.2970     0.9330     0.8520 c          1 C2W       0.701700
     24 OAC          0.1820     0.6320     2.0270 o          1 C2W      -0.581100
     25 N            0.9160     0.1540    -0.0610 ns         1 C2W      -0.561900
     26 CA           1.6610    -1.0240     0.2820 c3         1 C2W       0.034700
     27 C            3.1560    -0.7680     0.1210 c          1 C2W       0.650100
     28 O            3.6020     0.0580    -0.6510 o          1 C2W      -0.571100
     29 NAU          3.9430    -1.5730     0.8690 ns         1 C2W      -0.545900
     30 CBH          5.3570    -1.5040     0.7890 cx         1 C2W       0.091500
     31 CAF          5.9430    -0.3380     1.4060 c1         1 C2W       0.229700
     32 NAB          6.4060     0.5940     1.8990 n1         1 C2W      -0.347800
     33 CAQ          6.0560    -2.0600    -0.4270 cx         1 C2W      -0.098400
     34 CAR          6.1330    -2.7950     0.8600 cx         1 C2W      -0.098400
     35 H1          -0.6740    -1.8120    -2.4570 ha         1 C2W       0.145000
     36 H2           1.8180    -3.1080    -0.2490 hc         1 C2W       0.060200
     37 H3           1.5300    -2.0530    -1.6230 hc         1 C2W       0.060200
     38 H4          -0.1260    -3.2190     1.5500 ha         1 C2W       0.133000
     39 H5          -2.5560    -3.3440     1.8380 ha         1 C2W       0.145000
     40 H6          -5.8320    -1.6230     1.0420 h1         1 C2W       0.051700
     41 H7          -4.3440    -1.7850     1.9750 h1         1 C2W       0.051700
     42 H8          -3.2360    -0.2150     0.2740 hc         1 C2W       0.061700
     43 H9          -4.8380     0.1460    -0.3430 hc         1 C2W       0.061700
     44 H10         -5.4890     1.1270     1.8170 hc         1 C2W       0.054200
     45 H11         -4.0520     0.4980     2.5970 hc         1 C2W       0.054200
     46 H12         -4.0590     2.5320     0.3220 h1         1 C2W       0.037200
     47 H13         -3.9020     2.9400     2.0370 h1         1 C2W       0.037200
     48 H14         -2.8260     4.3800     0.3650 ha         1 C2W       0.137000
     49 H15         -1.2650     5.7700    -0.8260 ha         1 C2W       0.136000
     50 H16          1.8250     6.6880    -2.4640 h1         1 C2W       0.040033
     51 H17          0.1030     6.3000    -2.6230 h1         1 C2W       0.040033
     52 H18          0.7240     6.9960    -1.1100 h1         1 C2W       0.040033
     53 H19          1.7020     2.6870    -0.5800 ha         1 C2W       0.162000
     54 H20          0.9610     0.4750    -1.0160 hn         1 C2W       0.330500
     55 H21          1.4450    -1.2550     1.3270 h1         1 C2W       0.094700
     56 H22          3.5350    -2.1210     1.6120 hn         1 C2W       0.328500
     57 H23          5.4090    -2.4440    -1.2040 hc         1 C2W       0.087950
     58 H24          6.9320    -1.5330    -0.7780 hc         1 C2W       0.087950
     59 H25          7.0630    -2.7860     1.4120 hc         1 C2W       0.087950
     60 H26          5.5370    -3.6890     0.9810 hc         1 C2W       0.087950
@<TRIPOS>BOND
     1     1     2 1   
     2     2     3 ar  
     3     2     8 ar  
     4     3     4 ar  
     5     3    35 1   
     6     4     5 1   
     7     4     6 ar  
     8     5    26 1   
     9     5    36 1   
    10     5    37 1   
    11     6     7 ar  
    12     6    38 1   
    13     7     8 ar  
    14     7    39 1   
    15     8     9 1   
    16     9    10 1   
    17    10    11 1   
    18    10    40 1   
    19    10    41 1   
    20    11    12 1   
    21    11    42 1   
    22    11    43 1   
    23    12    13 1   
    24    12    44 1   
    25    12    45 1   
    26    13    14 1   
    27    13    46 1   
    28    13    47 1   
    29    14    15 1   
    30    15    16 ar  
    31    15    22 ar  
    32    16    17 ar  
    33    16    48 1   
    34    17    18 ar  
    35    17    49 1   
    36    18    19 1   
    37    18    21 ar  
    38    19    20 1   
    39    20    50 1   
    40    20    51 1   
    41    20    52 1   
    42    21    22 ar  
    43    21    53 1   
    44    22    23 1   
    45    23    24 2   
    46    23    25 1   
    47    25    26 1   
    48    25    54 1   
    49    26    27 1   
    50    26    55 1   
    51    27    28 2   
    52    27    29 1   
    53    29    30 1   
    54    29    56 1   
    55    30    31 1   
    56    30    33 1   
    57    30    34 1   
    58    31    32 3   
    59    33    34 1   
    60    33    57 1   
    61    33    58 1   
    62    34    59 1   
    63    34    60 1   
@<TRIPOS>SUBSTRUCTURE
     1 C2W         1 TEMP              0 ****  ****    0 ROOT
