@<TRIPOS>MOLECULE
C2Y
   22    23     1     0     0
SMALL
No Charge or Current Charge


@<TRIPOS>ATOM
      1 C4          -1.6250    -0.8830    -0.0140 ca         1 C2Y      -0.065200
      2 C5          -0.7760     0.1910    -0.0120 ca         1 C2Y      -0.050800
      3 C6          -1.2550     1.5110    -0.0210 ca         1 C2Y      -0.054000
      4 C7          -2.6530     1.7070    -0.0330 ca         1 C2Y      -0.133000
      5 C8          -3.5300     0.5980    -0.0350 ca         1 C2Y      -0.094000
      6 C9          -3.0160    -0.7160    -0.0250 ca         1 C2Y      -0.124000
      7 N           -0.9190    -2.0760    -0.0030 na         1 C2Y      -0.212700
      8 O            1.9150     1.6370     0.0030 o          1 C2Y      -0.498000
      9 C1           4.2480     0.2170     0.0270 c3         1 C2Y       0.155900
     10 C2           0.5630    -0.3340     0.0010 cc         1 C2Y      -0.221400
     11 C3           0.4530    -1.7230     0.0060 cd         1 C2Y      -0.082100
     12 O1           2.9480    -0.4000     0.0190 os         1 C2Y      -0.452100
     13 H1          -0.5780     2.3610    -0.0200 ha         1 C2Y       0.138000
     14 H2          -3.0570     2.7170    -0.0400 ha         1 C2Y       0.114000
     15 H3          -4.6070     0.7580    -0.0440 ha         1 C2Y       0.112000
     16 H4          -3.6840    -1.5750    -0.0270 ha         1 C2Y       0.114000
     17 H5          -1.3060    -3.0150    -0.0020 hn         1 C2Y       0.353000
     18 H6           5.0340    -0.5490     0.0360 h1         1 C2Y       0.045700
     19 H7           4.3910     0.8400    -0.8660 h1         1 C2Y       0.045700
     20 H8           4.3780     0.8480     0.9160 h1         1 C2Y       0.045700
     21 H9           1.2400    -2.4740     0.0150 h4         1 C2Y       0.226000
     22 C            1.8430     0.4150     0.0070 c          1 C2Y       0.638300
@<TRIPOS>BOND
     1     1     2 ar  
     2     1     6 ar  
     3     1     7 1   
     4     2     3 ar  
     5     2    10 1   
     6     3     4 ar  
     7     3    13 1   
     8     4     5 ar  
     9     4    14 1   
    10     5     6 ar  
    11     5    15 1   
    12     6    16 1   
    13     7    11 1   
    14     7    17 1   
    15     8    22 2   
    16     9    12 1   
    17     9    18 1   
    18     9    19 1   
    19     9    20 1   
    20    10    11 2   
    21    10    22 1   
    22    11    21 1   
    23    12    22 1   
@<TRIPOS>SUBSTRUCTURE
     1 C2Y         1 TEMP              0 ****  ****    0 ROOT
