@<TRIPOS>MOLECULE
C2Y
   22    23     1     0     0
SMALL
abcg2


@<TRIPOS>ATOM
      1 C4          -1.6200    -0.8720    -0.0150 ca         1 C2Y      -0.065200
      2 C5          -0.7310     0.2210    -0.0130 ca         1 C2Y      -0.050800
      3 C6          -1.2540     1.5180    -0.0200 ca         1 C2Y      -0.054000
      4 C7          -2.6270     1.6800    -0.0280 ca         1 C2Y      -0.133000
      5 C8          -3.4930     0.5760    -0.0300 ca         1 C2Y      -0.094000
      6 C9          -3.0030    -0.7160    -0.0240 ca         1 C2Y      -0.124000
      7 N           -0.8640    -2.0180    -0.0070 na         1 C2Y      -0.212700
      8 O            1.9220     1.6120    -0.0070 o          1 C2Y      -0.498000
      9 C1           4.1920     0.2210     0.0290 c3         1 C2Y       0.155900
     10 C2           0.5940    -0.3360    -0.0020 cc         1 C2Y      -0.221400
     11 C3           0.4460    -1.7050     0.0010 cd         1 C2Y      -0.082100
     12 O1           2.9080    -0.3970     0.0240 os         1 C2Y      -0.452100
     13 H1          -0.5990     2.3770    -0.0190 ha         1 C2Y       0.138000
     14 H2          -3.0450     2.6790    -0.0330 ha         1 C2Y       0.114000
     15 H3          -4.5630     0.7380    -0.0370 ha         1 C2Y       0.112000
     16 H4          -3.6670    -1.5690    -0.0270 ha         1 C2Y       0.114000
     17 H5          -1.2260    -2.9580    -0.0090 hn         1 C2Y       0.353000
     18 H6           4.9130    -0.5900     0.0680 h1         1 C2Y       0.045700
     19 H7           4.3580     0.8090    -0.8740 h1         1 C2Y       0.045700
     20 H8           4.3260     0.8620     0.9000 h1         1 C2Y       0.045700
     21 H9           1.1950    -2.4810     0.0080 h4         1 C2Y       0.226000
     22 C            1.8430     0.4030     0.0040 c          1 C2Y       0.638300
@<TRIPOS>BOND
     1     1     2 ar  
     2     1     6 ar  
     3     1     7 1   
     4     2     3 ar  
     5     2    10 1   
     6     3     4 ar  
     7     3    13 1   
     8     4     5 ar  
     9     4    14 1   
    10     5     6 ar  
    11     5    15 1   
    12     6    16 1   
    13     7    11 1   
    14     7    17 1   
    15     8    22 2   
    16     9    12 1   
    17     9    18 1   
    18     9    19 1   
    19     9    20 1   
    20    10    11 2   
    21    10    22 1   
    22    11    21 1   
    23    12    22 1   
@<TRIPOS>SUBSTRUCTURE
     1 C2Y         1 TEMP              0 ****  ****    0 ROOT
