@<TRIPOS>MOLECULE
C2Z
   19    20     1     0     0
SMALL
No Charge or Current Charge


@<TRIPOS>ATOM
      1 OAB         -3.1330     1.5510    -0.9200 o          1 C2Z      -0.909167
      2 PAO         -3.1830     0.4990     0.1410 p5         1 C2Z       1.086200
      3 OAD         -4.2380    -0.5480    -0.0160 o          1 C2Z      -0.909167
      4 OAA          4.9270     1.6950     0.2770 oh         1 C2Z      -0.640300
      5 CAN         -1.4390    -0.4050    -0.0110 cc         1 C2Z       0.222300
      6 OAJ         -0.2240     0.2520     0.0840 os         1 C2Z      -0.196000
      7 CAF         -1.2150    -1.7480    -0.2220 cd         1 C2Z      -0.268000
      8 CAE          0.1810    -1.9450    -0.2610 cd         1 C2Z      -0.131000
      9 CAM          0.7490    -0.7130    -0.0720 cc         1 C2Z      -0.069000
     10 CAL          2.1590    -0.4210    -0.0360 cc         1 C2Z       0.342000
     11 CAG          2.6170     0.8950     0.1670 cc         1 C2Z      -0.238000
     12 NAH          3.1440    -1.3060    -0.1800 nd         1 C2Z      -0.440300
     13 OAI          4.3460    -0.5130    -0.0630 os         1 C2Z      -0.175700
     14 CAK          3.9560     0.7770     0.1400 cd         1 C2Z       0.354300
     15 OAC         -3.1180     1.1780     1.4710 o          1 C2Z      -0.909167
     16 H3          -1.9820    -2.5060    -0.3350 ha         1 C2Z       0.134000
     17 H4           0.7040    -2.8850    -0.4110 ha         1 C2Z       0.099000
     18 H5           2.0200     1.7860     0.3090 ha         1 C2Z       0.180000
     19 H7           5.7660     1.1920     0.1940 ho         1 C2Z       0.468000
@<TRIPOS>BOND
     1     1     2 1   
     2     2     3 1   
     3     2     5 1   
     4     2    15 1   
     5     4    14 1   
     6     4    19 1   
     7     5     6 1   
     8     5     7 2   
     9     6     9 1   
    10     7     8 1   
    11     7    16 1   
    12     8     9 2   
    13     8    17 1   
    14     9    10 1   
    15    10    11 1   
    16    10    12 2   
    17    11    14 2   
    18    11    18 1   
    19    12    13 1   
    20    13    14 1   
@<TRIPOS>SUBSTRUCTURE
     1 C2Z         1 TEMP              0 ****  ****    0 ROOT
