@<TRIPOS>MOLECULE
C2Z
   19    20     1     0     0
SMALL
bcc


@<TRIPOS>ATOM
      1 OAB         -2.9370     1.4780    -1.0790 o          1 C2Z      -0.909167
      2 PAO         -2.9840     0.5670     0.1460 p5         1 C2Z       1.086200
      3 OAD         -4.0930    -0.4800     0.1270 o          1 C2Z      -0.909167
      4 OAA          4.8430     1.6880     0.3260 oh         1 C2Z      -0.601300
      5 CAN         -1.4580    -0.4750    -0.0190 cc         1 C2Z       0.332000
      6 OAJ         -0.2410     0.1220     0.0500 os         1 C2Z      -0.284800
      7 CAF         -1.2660    -1.8100    -0.2290 cd         1 C2Z      -0.351300
      8 CAE          0.1360    -2.0370    -0.2900 cd         1 C2Z      -0.214300
      9 CAM          0.7150    -0.8190    -0.1120 cc         1 C2Z       0.040700
     10 CAL          2.0850    -0.3730    -0.0550 cc         1 C2Z       0.407300
     11 CAG          2.5420     0.9410     0.2110 cc         1 C2Z      -0.386600
     12 NAH          3.0740    -1.2100    -0.2490 nd         1 C2Z      -0.440300
     13 OAI          4.2220    -0.4560    -0.1110 os         1 C2Z      -0.220100
     14 CAK          3.8920     0.7990     0.1580 cd         1 C2Z       0.464000
     15 OAC         -2.7960     1.2920     1.4750 o          1 C2Z      -0.909167
     16 H3          -2.0450    -2.5480    -0.3250 ha         1 C2Z       0.152000
     17 H4           0.6500    -2.9730    -0.4410 ha         1 C2Z       0.117000
     18 H5           1.9730     1.8310     0.4130 ha         1 C2Z       0.198000
     19 H7           5.7260     1.2990     0.2590 ho         1 C2Z       0.429000
@<TRIPOS>BOND
     1     1     2 1   
     2     2     3 1   
     3     2     5 1   
     4     2    15 1   
     5     4    14 1   
     6     4    19 1   
     7     5     6 1   
     8     5     7 2   
     9     6     9 1   
    10     7     8 1   
    11     7    16 1   
    12     8     9 2   
    13     8    17 1   
    14     9    10 1   
    15    10    11 1   
    16    10    12 2   
    17    11    14 2   
    18    11    18 1   
    19    12    13 1   
    20    13    14 1   
@<TRIPOS>SUBSTRUCTURE
     1 C2Z         1 TEMP              0 ****  ****    0 ROOT
