@<TRIPOS>MOLECULE
C30
  116   116     1     0     0
SMALL
No Charge or Current Charge


@<TRIPOS>ATOM
      1 C01        -14.7970    -5.1930    -1.2200 c3         1 C30      -0.053900
      2 C02        -15.9560    -4.2310    -1.4450 c2         1 C30      -0.119400
      3 C03        -17.2550    -4.9570    -1.7460 c3         1 C30      -0.053900
      4 C04        -15.8760    -2.8880    -1.3940 c2         1 C30      -0.218200
      5 C05        -14.6530    -2.0470    -1.0750 c3         1 C30      -0.038200
      6 C06        -13.8220    -1.7210    -2.3350 c3         1 C30      -0.032200
      7 C07        -12.5280    -0.9820    -2.0220 c2         1 C30      -0.126400
      8 C08        -12.7420     0.4980    -1.7240 c3         1 C30      -0.051900
      9 C09        -11.3340    -1.6070    -2.0260 c2         1 C30      -0.211200
     10 C10         -9.9710    -0.9960    -1.7550 c3         1 C30      -0.042200
     11 C11         -9.6350    -0.9760    -0.2480 c3         1 C30      -0.034200
     12 C12         -8.3530    -0.2210     0.0710 c2         1 C30      -0.119400
     13 C13         -7.0940    -1.0210    -0.2400 c3         1 C30      -0.056900
     14 C14         -8.3740     1.0220     0.5890 c2         1 C30      -0.216200
     15 C15         -7.1870     1.8780     0.9930 c3         1 C30      -0.040200
     16 C16         -6.6270     2.6980    -0.1890 c3         1 C30      -0.029200
     17 C17         -5.3970     3.5120     0.1840 c2         1 C30      -0.150400
     18 C18         -5.7370     4.8070     0.9140 c3         1 C30      -0.043900
     19 C19         -4.1520     3.1000    -0.1240 c2         1 C30      -0.185200
     20 C20         -2.8460     3.8180     0.1640 c3         1 C30      -0.048200
     21 C21         -2.3000     3.4920     1.5690 c3         1 C30      -0.020200
     22 C22         -1.0150     4.2490     1.8850 c2         1 C30      -0.183400
     23 C23         -1.2730     5.5750     2.5820 c3         1 C30      -0.036900
     24 C24          0.2300     3.8320     1.5790 c2         1 C30      -0.143200
     25 C25          0.6350     2.5590     0.8540 c3         1 C30      -0.065200
     26 C26          1.1520     2.8470    -0.5710 c3         1 C30      -0.018200
     27 C27          1.6140     1.5910    -1.3010 c2         1 C30      -0.167400
     28 C28          0.4690     0.7850    -1.8940 c3         1 C30      -0.037900
     29 C29          2.9020     1.2170    -1.4330 c2         1 C30      -0.166200
     30 C30          4.1280     1.9310    -0.8970 c3         1 C30       0.239800
     31 C40          8.2820    -0.8180    -0.2530 c6         1 C30       0.425300
     32 C42         10.2790    -2.1130     0.3250 c6         1 C30       0.153300
     33 C43         11.6880    -2.4780    -0.2530 c3         1 C30       0.170600
     34 C45          9.4270    -3.3750     0.6740 c6         1 C30       0.098300
     35 C47          8.0100    -2.9240     1.1370 c6         1 C30       0.155300
     36 C49          7.3310    -2.0310     0.0460 c6         1 C30       0.083700
     37 C52          3.5640    -1.7370     0.9020 c3         1 C30      -0.173100
     38 N50          5.9680    -1.6060     0.4500 ns         1 C30      -0.465900
     39 O31          4.1360     1.7960     0.5250 os         1 C30      -0.581400
     40 O33          5.1110     2.3710     2.7970 o          1 C30      -0.850000
     41 O34          5.8350     3.6630     0.8090 o          1 C30      -0.850000
     42 O35          6.3520     1.1040     0.9940 os         1 C30      -0.708800
     43 O37          8.1710     2.1210    -0.4960 o          1 C30      -0.833000
     44 O38          8.4050     2.2890     1.9860 o          1 C30      -0.833000
     45 O39          8.4610     0.0260     0.8920 os         1 C30      -0.626400
     46 O41          9.5810    -1.3050    -0.6610 os         1 C30      -0.448000
     47 O46         10.0420    -4.1870     1.7010 oh         1 C30      -0.735000
     48 O48          7.2330    -4.0920     1.4570 oh         1 C30      -0.656000
     49 O53          4.7590    -3.2980    -0.4940 o          1 C30      -0.657100
     50 P32          5.4180     2.3300     1.3370 p5         1 C30       1.448800
     51 P36          7.8620     1.5140     0.8310 p5         1 C30       1.458800
     52 H013       -14.9770    -5.8240    -0.3410 hc         1 C30       0.037033
     53 H012       -14.6660    -5.8560    -2.0840 hc         1 C30       0.037033
     54 H011       -13.8420    -4.6810    -1.0650 hc         1 C30       0.037033
     55 H033       -17.5370    -5.6200    -0.9190 hc         1 C30       0.037033
     56 H032       -18.0850    -4.2580    -1.9050 hc         1 C30       0.037033
     57 H031       -17.1650    -5.5700    -2.6520 hc         1 C30       0.037033
     58 H041       -16.7710    -2.2880    -1.5760 ha         1 C30       0.161000
     59 H051       -14.9690    -1.1140    -0.5920 hc         1 C30       0.046700
     60 H052       -14.0110    -2.5550    -0.3460 hc         1 C30       0.046700
     61 H061       -13.5950    -2.6660    -2.8440 hc         1 C30       0.043200
     62 H062       -14.4340    -1.1430    -3.0390 hc         1 C30       0.043200
     63 H081       -13.1950     1.0090    -2.5820 hc         1 C30       0.037367
     64 H083       -13.4070     0.6390    -0.8650 hc         1 C30       0.037367
     65 H082       -11.8110     1.0250    -1.4890 hc         1 C30       0.037367
     66 H091       -11.2870    -2.6740    -2.2510 ha         1 C30       0.165000
     67 H101        -9.2020    -1.5620    -2.2940 hc         1 C30       0.050200
     68 H102        -9.9180     0.0250    -2.1480 hc         1 C30       0.050200
     69 H111       -10.4770    -0.5100     0.2790 hc         1 C30       0.039700
     70 H112        -9.5810    -2.0050     0.1300 hc         1 C30       0.039700
     71 H133        -7.0650    -1.9490     0.3430 hc         1 C30       0.043367
     72 H132        -7.0470    -1.2940    -1.3000 hc         1 C30       0.043367
     73 H131        -6.1740    -0.4710    -0.0170 hc         1 C30       0.043367
     74 H141        -9.3320     1.5100     0.7750 ha         1 C30       0.156000
     75 H152        -7.4880     2.5570     1.8000 hc         1 C30       0.047700
     76 H151        -6.3850     1.2590     1.4110 hc         1 C30       0.047700
     77 H162        -6.3780     1.9990    -0.9970 hc         1 C30       0.038700
     78 H161        -7.4140     3.3490    -0.5900 hc         1 C30       0.038700
     79 H183        -6.2950     4.6090     1.8360 hc         1 C30       0.031367
     80 H181        -4.8500     5.3800     1.2020 hc         1 C30       0.031367
     81 H182        -6.3550     5.4600     0.2860 hc         1 C30       0.031367
     82 H191        -4.0130     2.1530    -0.6480 ha         1 C30       0.168000
     83 H202        -2.0970     3.5350    -0.5870 hc         1 C30       0.046200
     84 H201        -2.9690     4.9020     0.0640 hc         1 C30       0.046200
     85 H211        -3.0700     3.7160     2.3180 hc         1 C30       0.041700
     86 H212        -2.1430     2.4100     1.6400 hc         1 C30       0.041700
     87 H231        -1.7740     5.4230     3.5460 hc         1 C30       0.023700
     88 H233        -0.3420     6.1200     2.7790 hc         1 C30       0.023700
     89 H232        -1.9110     6.2260     1.9730 hc         1 C30       0.023700
     90 H241         1.0850     4.4550     1.8490 ha         1 C30       0.176000
     91 H252         1.4240     2.0480     1.4200 hc         1 C30       0.083700
     92 H251        -0.1950     1.8480     0.7910 hc         1 C30       0.083700
     93 H261         0.3690     3.3570    -1.1470 hc         1 C30       0.027700
     94 H262         1.9730     3.5690    -0.4930 hc         1 C30       0.027700
     95 H282        -0.1160     1.3880    -2.6000 hc         1 C30       0.020700
     96 H281         0.8330    -0.0940    -2.4380 hc         1 C30       0.020700
     97 H283        -0.2150     0.4240    -1.1160 hc         1 C30       0.020700
     98 H291         3.1500     0.3050    -1.9750 ha         1 C30       0.158000
     99 H301         5.0300     1.4830    -1.3340 h1         1 C30       0.021200
    100 H302         4.1000     2.9890    -1.1910 h1         1 C30       0.021200
    101 H401         7.8460    -0.2480    -1.0920 h2         1 C30       0.138700
    102 H421        10.4340    -1.5150     1.2370 h1         1 C30       0.087700
    103 H431        12.2380    -3.0510     0.5050 h1         1 C30      -0.001800
    104 H432        11.5460    -3.1370    -1.1210 h1         1 C30      -0.001800
    105 H451         9.3120    -3.9710    -0.2450 h1         1 C30       0.033700
    106 H471         8.1310    -2.3120     2.0460 h1         1 C30       0.070700
    107 H491         7.2450    -2.6170    -0.8800 h1         1 C30       0.079700
    108 H522         3.3930    -0.7190     0.5430 hc         1 C30       0.051700
    109 H523         2.6760    -2.3620     0.7530 hc         1 C30       0.051700
    110 H521         3.7790    -1.5740     1.9650 hc         1 C30       0.051700
    111 H501         5.8820    -0.7380     0.9750 hn         1 C30       0.340500
    112 H441        13.2930    -1.6700    -1.0500 ho         1 C30       0.473000
    113 H461        10.7800    -4.6880     1.2810 ho         1 C30       0.484000
    114 H481         7.8830    -4.7040     1.8700 ho         1 C30       0.425000
    115 C51          4.8040    -2.3010     0.2160 c          1 C30       0.636100
    116 O44         12.4650    -1.3300    -0.6390 oh         1 C30      -0.674000
@<TRIPOS>BOND
     1     1     2 1   
     2     1    52 1   
     3     1    53 1   
     4     1    54 1   
     5     2     3 1   
     6     2     4 2   
     7     3    55 1   
     8     3    56 1   
     9     3    57 1   
    10     4     5 1   
    11     4    58 1   
    12     5     6 1   
    13     5    59 1   
    14     5    60 1   
    15     6     7 1   
    16     6    61 1   
    17     6    62 1   
    18     7     8 1   
    19     7     9 2   
    20     8    63 1   
    21     8    64 1   
    22     8    65 1   
    23     9    10 1   
    24     9    66 1   
    25    10    11 1   
    26    10    67 1   
    27    10    68 1   
    28    11    12 1   
    29    11    69 1   
    30    11    70 1   
    31    12    13 1   
    32    12    14 2   
    33    13    71 1   
    34    13    72 1   
    35    13    73 1   
    36    14    15 1   
    37    14    74 1   
    38    15    16 1   
    39    15    75 1   
    40    15    76 1   
    41    16    17 1   
    42    16    77 1   
    43    16    78 1   
    44    17    18 1   
    45    17    19 2   
    46    18    79 1   
    47    18    80 1   
    48    18    81 1   
    49    19    20 1   
    50    19    82 1   
    51    20    21 1   
    52    20    83 1   
    53    20    84 1   
    54    21    22 1   
    55    21    85 1   
    56    21    86 1   
    57    22    23 1   
    58    22    24 2   
    59    23    87 1   
    60    23    88 1   
    61    23    89 1   
    62    24    25 1   
    63    24    90 1   
    64    25    26 1   
    65    25    91 1   
    66    25    92 1   
    67    26    27 1   
    68    26    93 1   
    69    26    94 1   
    70    27    28 1   
    71    27    29 2   
    72    28    95 1   
    73    28    96 1   
    74    28    97 1   
    75    29    30 1   
    76    29    98 1   
    77    30    39 1   
    78    30    99 1   
    79    30   100 1   
    80    31    36 1   
    81    31    45 1   
    82    31    46 1   
    83    31   101 1   
    84    32    33 1   
    85    32    34 1   
    86    32    46 1   
    87    32   102 1   
    88    33   103 1   
    89    33   104 1   
    90    33   116 1   
    91    34    35 1   
    92    34    47 1   
    93    34   105 1   
    94    35    36 1   
    95    35    48 1   
    96    35   106 1   
    97    36    38 1   
    98    36   107 1   
    99    37   108 1   
   100    37   109 1   
   101    37   110 1   
   102    37   115 1   
   103    38   111 1   
   104    38   115 1   
   105    39    50 1   
   106    40    50 1   
   107    41    50 1   
   108    42    50 1   
   109    42    51 1   
   110    43    51 1   
   111    44    51 1   
   112    45    51 1   
   113    47   113 1   
   114    48   114 1   
   115    49   115 2   
   116   112   116 1   
@<TRIPOS>SUBSTRUCTURE
     1 C30         1 TEMP              0 ****  ****    0 ROOT
