@<TRIPOS>MOLECULE
C30
  116   116     1     0     0
SMALL
abcg2


@<TRIPOS>ATOM
      1 C01        -15.5430    -3.8150     1.1810 c3         1 C30      -0.053900
      2 C02        -15.9420    -3.8950    -0.2630 c2         1 C30      -0.119400
      3 C03        -17.1310    -4.7730    -0.5280 c3         1 C30      -0.053900
      4 C04        -15.3210    -3.2590    -1.2610 c2         1 C30      -0.218200
      5 C05        -14.1200    -2.3690    -1.1790 c3         1 C30      -0.038200
      6 C06        -12.8820    -3.0210    -1.8130 c3         1 C30      -0.032200
      7 C07        -11.6810    -2.1180    -1.7870 c2         1 C30      -0.126400
      8 C08        -11.7410    -0.8930    -2.6650 c3         1 C30      -0.051900
      9 C09        -10.6450    -2.3850    -0.9900 c2         1 C30      -0.211200
     10 C10         -9.4290    -1.5340    -0.7970 c3         1 C30      -0.042200
     11 C11         -9.5030    -0.7520     0.5260 c3         1 C30      -0.034200
     12 C12         -8.2640     0.0510     0.8180 c2         1 C30      -0.119400
     13 C13         -7.0240    -0.7510     1.0870 c3         1 C30      -0.056900
     14 C14         -8.3050     1.3860     0.8110 c2         1 C30      -0.216200
     15 C15         -7.1650     2.3310     1.0360 c3         1 C30      -0.040200
     16 C16         -6.5700     2.8320    -0.2910 c3         1 C30      -0.029200
     17 C17         -5.4620     3.8320    -0.0920 c2         1 C30      -0.150400
     18 C18         -5.8980     5.1840     0.3920 c3         1 C30      -0.043900
     19 C19         -4.1930     3.4800    -0.3120 c2         1 C30      -0.185200
     20 C20         -2.9580     4.2970    -0.0990 c3         1 C30      -0.048200
     21 C21         -2.2000     3.8580     1.1670 c3         1 C30      -0.020200
     22 C22         -0.9320     4.6430     1.3710 c2         1 C30      -0.183400
     23 C23         -1.0890     5.9200     2.1440 c3         1 C30      -0.036900
     24 C24          0.2510     4.2760     0.8700 c2         1 C30      -0.143200
     25 C25          0.5420     3.0740     0.0280 c3         1 C30      -0.065200
     26 C26          0.8320     3.4680    -1.4310 c3         1 C30      -0.018200
     27 C27          0.9660     2.2560    -2.3200 c2         1 C30      -0.167400
     28 C28         -0.2810     1.8760    -3.0610 c3         1 C30      -0.037900
     29 C29          2.0820     1.5330    -2.4210 c2         1 C30      -0.166200
     30 C30          3.3680     1.8040    -1.7120 c3         1 C30       0.239800
     31 C40          7.8270    -1.1990     1.0710 c6         1 C30       0.425300
     32 C42          9.2380    -2.8200     2.0920 c6         1 C30       0.153300
     33 C43         10.3510    -2.8880     3.1150 c3         1 C30       0.170600
     34 C45          9.6880    -3.3620     0.7310 c6         1 C30       0.098300
     35 C47          8.5930    -3.1510    -0.3090 c6         1 C30       0.155300
     36 C49          8.2000    -1.6780    -0.3350 c6         1 C30       0.083700
     37 C52          5.9540    -0.4730    -3.1260 c3         1 C30      -0.173100
     38 N50          7.1220    -1.4210    -1.2500 ns         1 C30      -0.465900
     39 O31          3.6130     0.7370    -0.8030 os         1 C30      -0.581400
     40 O33          3.8560     1.9730     1.4250 o          1 C30      -0.850000
     41 O34          5.9560     1.4580    -0.0140 o          1 C30      -0.850000
     42 O35          4.5660    -0.4740     1.0220 os         1 C30      -0.708800
     43 O37          6.0240     0.0580     3.0720 o          1 C30      -0.833000
     44 O38          4.6280    -2.1550     2.8900 o          1 C30      -0.833000
     45 O39          6.6450    -1.8460     1.4500 os         1 C30      -0.626400
     46 O41          8.8580    -1.4610     1.9710 os         1 C30      -0.448000
     47 O46          9.9520    -4.7490     0.7870 oh         1 C30      -0.735000
     48 O48          9.0240    -3.5140    -1.5960 oh         1 C30      -0.656000
     49 O53          8.2810    -0.1330    -2.7050 o          1 C30      -0.657100
     50 P32          4.5920     1.0770     0.4740 p5         1 C30       1.448800
     51 P36          5.4460    -1.0660     2.2780 p5         1 C30       1.458800
     52 H013       -16.3780    -3.4660     1.7920 hc         1 C30       0.037033
     53 H012       -15.2780    -4.8060     1.5580 hc         1 C30       0.037033
     54 H011       -14.6980    -3.1540     1.3630 hc         1 C30       0.037033
     55 H033       -18.0090    -4.4170     0.0160 hc         1 C30       0.037033
     56 H032       -17.3850    -4.8130    -1.5870 hc         1 C30       0.037033
     57 H031       -16.9480    -5.7950    -0.1850 hc         1 C30       0.037033
     58 H041       -15.7030    -3.4150    -2.2680 ha         1 C30       0.161000
     59 H051       -14.3380    -1.4310    -1.7000 hc         1 C30       0.046700
     60 H052       -13.8860    -2.0990    -0.1480 hc         1 C30       0.046700
     61 H061       -12.6620    -3.9520    -1.2830 hc         1 C30       0.043200
     62 H062       -13.1180    -3.2960    -2.8470 hc         1 C30       0.043200
     63 H081       -12.6030    -0.9230    -3.3310 hc         1 C30       0.037367
     64 H083       -11.8180     0.0250    -2.0790 hc         1 C30       0.037367
     65 H082       -10.8500    -0.7960    -3.2880 hc         1 C30       0.037367
     66 H091       -10.6930    -3.2790    -0.3700 ha         1 C30       0.165000
     67 H101        -8.5400    -2.1710    -0.7930 hc         1 C30       0.050200
     68 H102        -9.3040    -0.8250    -1.6190 hc         1 C30       0.050200
     69 H111       -10.3770    -0.0960     0.4960 hc         1 C30       0.039700
     70 H112        -9.6710    -1.4650     1.3410 hc         1 C30       0.039700
     71 H133        -7.2400    -1.5810     1.7640 hc         1 C30       0.043367
     72 H132        -6.6290    -1.1920     0.1690 hc         1 C30       0.043367
     73 H131        -6.2220    -0.1630     1.5290 hc         1 C30       0.043367
     74 H141        -9.2580     1.8560     0.5780 ha         1 C30       0.156000
     75 H152        -7.5210     3.1840     1.6210 hc         1 C30       0.047700
     76 H151        -6.3670     1.8670     1.6200 hc         1 C30       0.047700
     77 H162        -6.2020     1.9690    -0.8510 hc         1 C30       0.038700
     78 H161        -7.3700     3.2790    -0.8910 hc         1 C30       0.038700
     79 H183        -6.3030     5.1270     1.4060 hc         1 C30       0.031367
     80 H181        -5.0960     5.9180     0.4030 hc         1 C30       0.031367
     81 H182        -6.7010     5.5750    -0.2370 hc         1 C30       0.031367
     82 H191        -4.0100     2.4600    -0.6450 ha         1 C30       0.168000
     83 H202        -2.2900     4.1770    -0.9590 hc         1 C30       0.046200
     84 H201        -3.1830     5.3630    -0.0360 hc         1 C30       0.046200
     85 H211        -2.8600     3.9900     2.0290 hc         1 C30       0.041700
     86 H212        -1.9970     2.7860     1.1030 hc         1 C30       0.041700
     87 H231        -1.4290     5.7240     3.1650 hc         1 C30       0.023700
     88 H233        -0.1580     6.4840     2.2000 hc         1 C30       0.023700
     89 H232        -1.8450     6.5660     1.6870 hc         1 C30       0.023700
     90 H241         1.1010     4.9320     1.0460 ha         1 C30       0.176000
     91 H252         1.4190     2.5540     0.4250 hc         1 C30       0.083700
     92 H251        -0.2860     2.3630     0.0510 hc         1 C30       0.083700
     93 H261         0.0150     4.0940    -1.7990 hc         1 C30       0.027700
     94 H262         1.7270     4.0930    -1.4640 hc         1 C30       0.027700
     95 H282        -0.5510     2.6490    -3.7850 hc         1 C30       0.020700
     96 H281        -0.1750     0.9320    -3.5950 hc         1 C30       0.020700
     97 H283        -1.1290     1.7860    -2.3760 hc         1 C30       0.020700
     98 H291         2.0770     0.6540    -3.0620 ha         1 C30       0.158000
     99 H301         4.1900     1.8670    -2.4340 h1         1 C30       0.021200
    100 H302         3.3240     2.7640    -1.1880 h1         1 C30       0.021200
    101 H401         7.7010    -0.1140     1.0600 h2         1 C30       0.138700
    102 H421         8.3950    -3.4290     2.4490 h1         1 C30       0.087700
    103 H431        10.7270    -3.9180     3.1490 h1         1 C30      -0.001800
    104 H432        11.1840    -2.2530     2.7800 h1         1 C30      -0.001800
    105 H451        10.5800    -2.8050     0.4080 h1         1 C30       0.033700
    106 H471         7.7200    -3.7510    -0.0090 h1         1 C30       0.070700
    107 H491         9.0610    -1.0950    -0.6680 h1         1 C30       0.079700
    108 H522         5.0590    -0.6510    -2.5350 hc         1 C30       0.051700
    109 H523         5.9040     0.5320    -3.5390 hc         1 C30       0.051700
    110 H521         5.9600    -1.1750    -3.9620 hc         1 C30       0.051700
    111 H501         6.1990    -1.7020    -0.9590 hn         1 C30       0.340500
    112 H441        10.5490    -2.6220     5.0200 ho         1 C30       0.473000
    113 H461        10.8830    -4.8860     0.9830 ho         1 C30       0.484000
    114 H481         9.2810    -4.4410    -1.5650 ho         1 C30       0.425000
    115 C51          7.2280    -0.6360    -2.3370 c          1 C30       0.636100
    116 O44          9.8550    -2.4850     4.3690 oh         1 C30      -0.674000
@<TRIPOS>BOND
     1     1     2 1   
     2     1    52 1   
     3     1    53 1   
     4     1    54 1   
     5     2     3 1   
     6     2     4 2   
     7     3    55 1   
     8     3    56 1   
     9     3    57 1   
    10     4     5 1   
    11     4    58 1   
    12     5     6 1   
    13     5    59 1   
    14     5    60 1   
    15     6     7 1   
    16     6    61 1   
    17     6    62 1   
    18     7     8 1   
    19     7     9 2   
    20     8    63 1   
    21     8    64 1   
    22     8    65 1   
    23     9    10 1   
    24     9    66 1   
    25    10    11 1   
    26    10    67 1   
    27    10    68 1   
    28    11    12 1   
    29    11    69 1   
    30    11    70 1   
    31    12    13 1   
    32    12    14 2   
    33    13    71 1   
    34    13    72 1   
    35    13    73 1   
    36    14    15 1   
    37    14    74 1   
    38    15    16 1   
    39    15    75 1   
    40    15    76 1   
    41    16    17 1   
    42    16    77 1   
    43    16    78 1   
    44    17    18 1   
    45    17    19 2   
    46    18    79 1   
    47    18    80 1   
    48    18    81 1   
    49    19    20 1   
    50    19    82 1   
    51    20    21 1   
    52    20    83 1   
    53    20    84 1   
    54    21    22 1   
    55    21    85 1   
    56    21    86 1   
    57    22    23 1   
    58    22    24 2   
    59    23    87 1   
    60    23    88 1   
    61    23    89 1   
    62    24    25 1   
    63    24    90 1   
    64    25    26 1   
    65    25    91 1   
    66    25    92 1   
    67    26    27 1   
    68    26    93 1   
    69    26    94 1   
    70    27    28 1   
    71    27    29 2   
    72    28    95 1   
    73    28    96 1   
    74    28    97 1   
    75    29    30 1   
    76    29    98 1   
    77    30    39 1   
    78    30    99 1   
    79    30   100 1   
    80    31    36 1   
    81    31    45 1   
    82    31    46 1   
    83    31   101 1   
    84    32    33 1   
    85    32    34 1   
    86    32    46 1   
    87    32   102 1   
    88    33   103 1   
    89    33   104 1   
    90    33   116 1   
    91    34    35 1   
    92    34    47 1   
    93    34   105 1   
    94    35    36 1   
    95    35    48 1   
    96    35   106 1   
    97    36    38 1   
    98    36   107 1   
    99    37   108 1   
   100    37   109 1   
   101    37   110 1   
   102    37   115 1   
   103    38   111 1   
   104    38   115 1   
   105    39    50 1   
   106    40    50 1   
   107    41    50 1   
   108    42    50 1   
   109    42    51 1   
   110    43    51 1   
   111    44    51 1   
   112    45    51 1   
   113    47   113 1   
   114    48   114 1   
   115    49   115 2   
   116   112   116 1   
@<TRIPOS>SUBSTRUCTURE
     1 C30         1 TEMP              0 ****  ****    0 ROOT
