@<TRIPOS>MOLECULE
C35
  106   108     1     0     0
SMALL
bcc


@<TRIPOS>ATOM
      1 C37         -8.7790    -1.6220    -0.1270 ca         1 C35      -0.107000
      2 C36        -10.0110    -2.2480    -0.1990 ca         1 C35      -0.113500
      3 C35        -10.2540    -3.3650     0.5870 ca         1 C35       0.032400
      4 CL         -11.7970    -4.1420     0.5040 cl         1 C35      -0.096400
      5 C34         -9.2810    -3.8710     1.4330 ca         1 C35      -0.113500
      6 C33         -8.0430    -3.2500     1.4920 ca         1 C35      -0.107000
      7 C32         -7.8000    -2.1240     0.7210 ca         1 C35       0.004800
      8 N10         -6.5430    -1.4790     0.7790 na         1 C35       0.031500
      9 N9          -5.8950    -1.1600    -0.3430 nc         1 C35      -0.454800
     10 C30         -5.8520    -1.0530     1.8610 cc         1 C35       0.445800
     11 C31         -6.2870    -1.2100     3.2690 c3         1 C35      -0.128400
     12 N11         -4.7530    -0.4670     1.4480 nd         1 C35      -0.700000
     13 C29         -4.8240    -0.5570     0.1040 cd         1 C35       0.473500
     14 C28         -3.7870    -0.0280    -0.8200 c          1 C35       0.615600
     15 O5          -3.8940    -0.1490    -2.0290 o          1 C35      -0.580100
     16 N8          -2.7710     0.5770    -0.1880 ns         1 C35      -0.549900
     17 C23         -1.6340     1.1550    -0.8600 c3         1 C35       0.040700
     18 C24         -1.3760     2.5890    -0.3920 c3         1 C35      -0.087400
     19 C25         -2.5370     3.5300    -0.6790 c3         1 C35      -0.095400
     20 C26         -2.2440     4.9540    -0.2010 c3         1 C35       0.144800
     21 N5          -3.3060     5.8840    -0.4860 n2         1 C35      -0.736900
     22 C27         -4.3190     5.9330     0.2980 c2         1 C35       0.794100
     23 N6          -4.5330     5.1630     1.4140 nv         1 C35      -0.931300
     24 N7          -5.3750     6.7560    -0.0250 nv         1 C35      -0.931300
     25 C22         -0.3990     0.3070    -0.5730 c          1 C35       0.651100
     26 O4          -0.1190    -0.0300     0.5670 o          1 C35      -0.609100
     27 N4           0.3500    -0.0050    -1.6410 ns         1 C35      -0.555900
     28 C17          1.6090    -0.7060    -1.5160 c3         1 C35       0.038700
     29 C18          1.9690    -1.3800    -2.8360 c3         1 C35      -0.081400
     30 C19          3.2570    -2.2050    -2.7990 c3         1 C35      -0.058700
     31 C20          3.2130    -3.3070    -1.7450 c3         1 C35      -0.092100
     32 C21          3.5250    -2.7960    -4.1800 c3         1 C35      -0.092100
     33 C16          2.6950     0.2900    -1.1080 c          1 C35       0.652100
     34 O3           2.9500     1.2650    -1.7990 o          1 C35      -0.615100
     35 N3           3.3270    -0.0060     0.0330 ns         1 C35      -0.552900
     36 C11          4.3650     0.8110     0.6110 c3         1 C35       0.039700
     37 C12          3.7670     1.9640     1.4550 c3         1 C35      -0.073700
     38 C15          2.9210     1.4520     2.6160 c3         1 C35      -0.094100
     39 C13          4.8050     2.9770     1.9430 c3         1 C35      -0.082400
     40 C14          5.5530     3.7120     0.8380 c3         1 C35      -0.089100
     41 C10          5.2690    -0.1140     1.4210 c          1 C35       0.671100
     42 O2           4.8410    -1.1360     1.9340 o          1 C35      -0.611100
     43 N2           6.5430     0.2950     1.5180 ns         1 C35      -0.555900
     44 C8           7.5720    -0.4070     2.2340 c3         1 C35       0.026700
     45 C9           8.1870     0.5120     3.2880 c          1 C35       0.658100
     46 O1           8.2210     1.7220     3.1300 o          1 C35      -0.603100
     47 N1           8.7170    -0.1210     4.3390 nt         1 C35      -0.670000
     48 C7           8.6780    -0.8860     1.2720 c3         1 C35      -0.040100
     49 C6           8.1400    -1.8110     0.2180 ca         1 C35      -0.097300
     50 C5           7.6750    -1.3210    -0.9990 ca         1 C35      -0.092500
     51 C4           7.1540    -2.1700    -1.9660 ca         1 C35      -0.165000
     52 C1           7.1120    -3.5230    -1.6980 ca         1 C35       0.136900
     53 F1           6.6250    -4.3600    -2.6330 f          1 C35      -0.145900
     54 C2           7.5560    -4.0500    -0.5010 ca         1 C35      -0.165000
     55 C3           8.0680    -3.1810     0.4520 ca         1 C35      -0.092500
     56 H37         -8.5870    -0.7440    -0.7280 ha         1 C35       0.156500
     57 H36        -10.7760    -1.8590    -0.8570 ha         1 C35       0.155500
     58 H34         -9.4710    -4.7510     2.0310 ha         1 C35       0.155500
     59 H33         -7.2730    -3.6660     2.1280 ha         1 C35       0.156500
     60 H311        -6.0490    -2.2040     3.6500 hc         1 C35       0.064033
     61 H312        -5.7670    -0.4820     3.8860 hc         1 C35       0.064033
     62 H313        -7.3600    -1.0580     3.3790 hc         1 C35       0.064033
     63 H8          -2.7800     0.5850     0.8220 hn         1 C35       0.350500
     64 H23         -1.8520     1.1640    -1.9290 h1         1 C35       0.088700
     65 H241        -1.1510     2.5840     0.6790 hc         1 C35       0.054700
     66 H242        -0.4740     2.9520    -0.8940 hc         1 C35       0.054700
     67 H251        -2.7440     3.5490    -1.7520 hc         1 C35       0.057200
     68 H252        -3.4430     3.1600    -0.1920 hc         1 C35       0.057200
     69 H261        -1.9680     4.9160     0.8670 h1         1 C35       0.028200
     70 H262        -1.3410     5.3050    -0.7100 h1         1 C35       0.028200
     71 H6N1        -3.7300     4.7150     1.8220 hn         1 C35       0.403050
     72 H6N2        -5.1670     5.5210     2.1100 hn         1 C35       0.403050
     73 H7N1        -5.1340     7.4760    -0.6860 hn         1 C35       0.403050
     74 H7N2        -5.9270     7.1100     0.7410 hn         1 C35       0.403050
     75 H4           0.0800     0.3360    -2.5500 hn         1 C35       0.330500
     76 H17          1.4850    -1.4660    -0.7430 h1         1 C35       0.083700
     77 H181         1.1350    -2.0300    -3.1180 hc         1 C35       0.056200
     78 H182         2.0530    -0.6160    -3.6150 hc         1 C35       0.056200
     79 H19          4.0950    -1.5390    -2.5610 hc         1 C35       0.050700
     80 H201         4.0850    -3.9560    -1.8300 hc         1 C35       0.036367
     81 H202         3.2120    -2.9150    -0.7280 hc         1 C35       0.036367
     82 H203         2.3240    -3.9300    -1.8630 hc         1 C35       0.036367
     83 H211         3.5690    -2.0200    -4.9470 hc         1 C35       0.036367
     84 H212         4.4750    -3.3330    -4.1950 hc         1 C35       0.036367
     85 H213         2.7420    -3.5030    -4.4640 hc         1 C35       0.036367
     86 H3           3.0040    -0.7880     0.5810 hn         1 C35       0.343500
     87 H11          4.9400     1.2410    -0.2120 h1         1 C35       0.081700
     88 H12          3.1030     2.4960     0.7640 hc         1 C35       0.066700
     89 H151         3.5230     0.9340     3.3650 hc         1 C35       0.042367
     90 H152         2.4350     2.2920     3.1130 hc         1 C35       0.042367
     91 H153         2.1340     0.7750     2.2830 hc         1 C35       0.042367
     92 H131         4.2720     3.7150     2.5480 hc         1 C35       0.048700
     93 H132         5.5160     2.5000     2.6240 hc         1 C35       0.048700
     94 H141         6.2200     4.4640     1.2600 hc         1 C35       0.032700
     95 H142         6.1690     3.0550     0.2220 hc         1 C35       0.032700
     96 H143         4.8590     4.2210     0.1670 hc         1 C35       0.032700
     97 H2           6.8120     1.1630     1.0810 hn         1 C35       0.334500
     98 HA           7.1150    -1.2740     2.7120 h1         1 C35       0.094700
     99 H7C1         9.1460    -0.0130     0.8100 hc         1 C35       0.058700
    100 H7C2         9.4540    -1.3890     1.8530 hc         1 C35       0.058700
    101 H1N1         8.6380    -1.1160     4.4590 hn         1 C35       0.317500
    102 H1N2         9.2040     0.3930     5.0560 hn         1 C35       0.317500
    103 H5           7.7260    -0.2590    -1.2080 ha         1 C35       0.132000
    104 HB           8.4250    -3.5860     1.3920 ha         1 C35       0.132000
    105 HC           6.7970    -1.7840    -2.9120 ha         1 C35       0.152000
    106 HD           7.5120    -5.1150    -0.3180 ha         1 C35       0.152000
@<TRIPOS>BOND
     1     1     2 ar  
     2     1     7 ar  
     3     1    56 1   
     4     2     3 ar  
     5     2    57 1   
     6     3     4 1   
     7     3     5 ar  
     8     5     6 ar  
     9     5    58 1   
    10     6     7 ar  
    11     6    59 1   
    12     7     8 1   
    13     8     9 1   
    14     8    10 1   
    15     9    13 2   
    16    10    11 1   
    17    10    12 2   
    18    11    60 1   
    19    11    61 1   
    20    11    62 1   
    21    12    13 1   
    22    13    14 1   
    23    14    15 2   
    24    14    16 1   
    25    16    17 1   
    26    16    63 1   
    27    17    18 1   
    28    17    25 1   
    29    17    64 1   
    30    18    19 1   
    31    18    65 1   
    32    18    66 1   
    33    19    20 1   
    34    19    67 1   
    35    19    68 1   
    36    20    21 1   
    37    20    69 1   
    38    20    70 1   
    39    21    22 2   
    40    22    23 1   
    41    22    24 1   
    42    23    71 1   
    43    23    72 1   
    44    24    73 1   
    45    24    74 1   
    46    25    26 2   
    47    25    27 1   
    48    27    28 1   
    49    27    75 1   
    50    28    29 1   
    51    28    33 1   
    52    28    76 1   
    53    29    30 1   
    54    29    77 1   
    55    29    78 1   
    56    30    31 1   
    57    30    32 1   
    58    30    79 1   
    59    31    80 1   
    60    31    81 1   
    61    31    82 1   
    62    32    83 1   
    63    32    84 1   
    64    32    85 1   
    65    33    34 2   
    66    33    35 1   
    67    35    36 1   
    68    35    86 1   
    69    36    37 1   
    70    36    41 1   
    71    36    87 1   
    72    37    38 1   
    73    37    39 1   
    74    37    88 1   
    75    38    89 1   
    76    38    90 1   
    77    38    91 1   
    78    39    40 1   
    79    39    92 1   
    80    39    93 1   
    81    40    94 1   
    82    40    95 1   
    83    40    96 1   
    84    41    42 2   
    85    41    43 1   
    86    43    44 1   
    87    43    97 1   
    88    44    45 1   
    89    44    48 1   
    90    44    98 1   
    91    45    46 2   
    92    45    47 1   
    93    47   101 1   
    94    47   102 1   
    95    48    49 1   
    96    48    99 1   
    97    48   100 1   
    98    49    50 ar  
    99    49    55 ar  
   100    50    51 ar  
   101    50   103 1   
   102    51    52 ar  
   103    51   105 1   
   104    52    53 1   
   105    52    54 ar  
   106    54    55 ar  
   107    54   106 1   
   108    55   104 1   
@<TRIPOS>SUBSTRUCTURE
     1 C35         1 TEMP              0 ****  ****    0 ROOT
