@<TRIPOS>MOLECULE
C35
  106   108     1     0     0
SMALL
No Charge or Current Charge


@<TRIPOS>ATOM
      1 C37         -9.8200    -0.9830    -0.6510 ca         1 C35      -0.089000
      2 C36        -11.1380    -1.3540    -0.9710 ca         1 C35      -0.095500
      3 C35        -11.4520    -2.7040    -1.1970 ca         1 C35       0.124000
      4 Cl         -13.1000    -3.1680    -1.5980 cl         1 C35      -0.188000
      5 C34        -10.4500    -3.6840    -1.1070 ca         1 C35      -0.095500
      6 C33         -9.1310    -3.3150    -0.7870 ca         1 C35      -0.089000
      7 C32         -8.8100    -1.9620    -0.5530 ca         1 C35       0.004800
      8 N10         -7.5040    -1.5880    -0.2320 na         1 C35       0.031500
      9 N9          -6.8000    -0.7650    -1.0360 nc         1 C35      -0.454800
     10 C30         -6.7950    -2.0280     0.8540 cc         1 C35       0.445800
     11 C31         -7.2800    -2.9360     1.9470 c3         1 C35      -0.128400
     12 N11         -5.5980    -1.4790     0.7800 nd         1 C35      -0.700000
     13 C29         -5.6280    -0.7060    -0.3950 cd         1 C35       0.473500
     14 C28         -4.4730     0.1320    -0.9320 c          1 C35       0.548600
     15 O5          -4.4960     0.8070    -1.9600 o          1 C35      -0.580100
     16 N8          -3.3430     0.0640    -0.1320 ns         1 C35      -0.482900
     17 C23         -2.0640     0.7690    -0.3800 c3         1 C35       0.040700
     18 C24         -1.9890     2.1030     0.4150 c3         1 C35      -0.087400
     19 C25         -3.0850     3.1360     0.0540 c3         1 C35      -0.095400
     20 C26         -2.9220     4.4710     0.8090 c3         1 C35       0.144800
     21 N5          -3.9830     5.4110     0.4060 n2         1 C35      -0.736900
     22 C27         -4.7780     5.9660     1.2030 c2         1 C35       0.794100
     23 N6          -4.8400     5.8850     2.5080 nv         1 C35      -1.041700
     24 N7          -5.7270     6.7830     0.8370 nv         1 C35      -1.041700
     25 C22         -0.8650    -0.1620    -0.0350 c          1 C35       0.584100
     26 O4          -0.9870    -1.2080     0.5920 o          1 C35      -0.609100
     27 N4           0.3640     0.2730    -0.4860 ns         1 C35      -0.488900
     28 C17          1.6450    -0.4440    -0.2950 c3         1 C35       0.038700
     29 C18          1.7630    -1.5790    -1.3510 c3         1 C35      -0.081400
     30 C19          3.0200    -2.4890    -1.2570 c3         1 C35      -0.058700
     31 C20          3.1120    -3.2440     0.0910 c3         1 C35      -0.092100
     32 C21          3.0530    -3.4820    -2.4420 c3         1 C35      -0.092100
     33 C16          2.8160     0.5760    -0.3840 c          1 C35       0.585100
     34 O3           2.7610     1.5880    -1.0730 o          1 C35      -0.615100
     35 N3           3.9190     0.2830     0.3900 ns         1 C35      -0.485900
     36 C11          5.1210     1.1370     0.5250 c3         1 C35       0.039700
     37 C12          4.8040     2.3990     1.4020 c3         1 C35      -0.073700
     38 C15          4.4140     2.0240     2.8550 c3         1 C35      -0.094100
     39 C13          5.9150     3.4870     1.4020 c3         1 C35      -0.082400
     40 C14          6.2770     4.0450     0.0080 c3         1 C35      -0.089100
     41 C10          6.2990     0.2780     1.0780 c          1 C35       0.604100
     42 O2           6.1240    -0.7660     1.6950 o          1 C35      -0.611100
     43 N2           7.5620     0.7670     0.8160 ns         1 C35      -0.488900
     44 C8           8.8350     0.1390     1.2430 c3         1 C35       0.026700
     45 C9           9.8550     1.2340     1.6760 c          1 C35       0.591100
     46 O1           9.6610     2.4320     1.5410 o          1 C35      -0.603100
     47 N1          11.0160     0.8040     2.2210 nt         1 C35      -0.603000
     48 C7           9.4140    -0.7860     0.1380 c3         1 C35      -0.040100
     49 C6           8.5020    -1.9530    -0.2210 ca         1 C35      -0.097300
     50 C5           7.6960    -1.9050    -1.3770 ca         1 C35      -0.074500
     51 C4           6.8780    -2.9980    -1.7140 ca         1 C35      -0.147000
     52 C1           6.8650    -4.1390    -0.8970 ca         1 C35       0.172000
     53 F1           6.0960    -5.1980    -1.2290 f          1 C35      -0.181000
     54 C2           7.6570    -4.1920     0.2590 ca         1 C35      -0.147000
     55 C3           8.4750    -3.1000     0.5970 ca         1 C35      -0.074500
     56 H37         -9.5820     0.0650    -0.4770 ha         1 C35       0.138500
     57 H36        -11.9160    -0.5980    -1.0440 ha         1 C35       0.137500
     58 H34        -10.6950    -4.7280    -1.2870 ha         1 C35       0.137500
     59 H33         -8.3590    -4.0800    -0.7280 ha         1 C35       0.138500
     60 H311        -7.2360    -3.9830     1.6280 hc         1 C35       0.064033
     61 H312        -6.6630    -2.8280     2.8460 hc         1 C35       0.064033
     62 H313        -8.3160    -2.7020     2.2190 hc         1 C35       0.064033
     63 H8          -3.4080    -0.5540     0.6740 hn         1 C35       0.350500
     64 H23         -1.9820     0.9930    -1.4520 h1         1 C35       0.088700
     65 H241        -2.0440     1.8830     1.4890 hc         1 C35       0.054700
     66 H242        -1.0100     2.5670     0.2430 hc         1 C35       0.054700
     67 H251        -3.0590     3.3260    -1.0260 hc         1 C35       0.057200
     68 H252        -4.0720     2.7190     0.2860 hc         1 C35       0.057200
     69 H261        -2.9340     4.2660     1.8880 h1         1 C35       0.028200
     70 H262        -1.9370     4.8930     0.5690 h1         1 C35       0.028200
     71 H6N1        -3.9290     5.9040     2.9440 hn         1 C35       0.458250
     72 H6N2        -5.5240     6.5170     2.8910 hn         1 C35       0.458250
     73 H7N1        -5.8490     6.7040    -0.1640 hn         1 C35       0.458250
     74 H7N2        -5.5210     7.7360     1.1040 hn         1 C35       0.458250
     75 H4           0.3860     1.1540    -0.9890 hn         1 C35       0.330500
     76 H17          1.6500    -0.8730     0.7150 h1         1 C35       0.083700
     77 H181         0.8720    -2.2160    -1.2840 hc         1 C35       0.056200
     78 H182         1.7340    -1.1220    -2.3480 hc         1 C35       0.056200
     79 H19          3.9130    -1.8590    -1.3500 hc         1 C35       0.050700
     80 H201         3.9960    -3.8930     0.1100 hc         1 C35       0.036367
     81 H202         3.1960    -2.5520     0.9350 hc         1 C35       0.036367
     82 H203         2.2260    -3.8720     0.2470 hc         1 C35       0.036367
     83 H211         3.0540    -2.9460    -3.3990 hc         1 C35       0.036367
     84 H212         3.9530    -4.1050    -2.4060 hc         1 C35       0.036367
     85 H213         2.1790    -4.1450    -2.4210 hc         1 C35       0.036367
     86 H3           3.8950    -0.5800     0.9230 hn         1 C35       0.343500
     87 H11          5.4070     1.4590    -0.4850 h1         1 C35       0.081700
     88 H12          3.9200     2.8790     0.9630 hc         1 C35       0.066700
     89 H151         5.2570     1.5640     3.3850 hc         1 C35       0.042367
     90 H152         4.1090     2.9160     3.4160 hc         1 C35       0.042367
     91 H153         3.5720     1.3210     2.8730 hc         1 C35       0.042367
     92 H131         5.5740     4.3300     2.0170 hc         1 C35       0.048700
     93 H132         6.8200     3.1090     1.8930 hc         1 C35       0.048700
     94 H141         6.9840     4.8780     0.1070 hc         1 C35       0.032700
     95 H142         6.7450     3.2830    -0.6240 hc         1 C35       0.032700
     96 H143         5.3820     4.4190    -0.5030 hc         1 C35       0.032700
     97 H2           7.6150     1.6590     0.3370 hn         1 C35       0.334500
     98 HA           8.6460    -0.4690     2.1380 h1         1 C35       0.094700
     99 H7C1         9.6270    -0.1820    -0.7530 hc         1 C35       0.058700
    100 H7C2        10.3830    -1.1820     0.4650 hc         1 C35       0.058700
    101 H1N1        11.1890    -0.1830     2.3440 hn         1 C35       0.317500
    102 H1N2        11.7030     1.4830     2.5120 hn         1 C35       0.317500
    103 H5           7.7070    -1.0240    -2.0160 ha         1 C35       0.114000
    104 HB           9.0920    -3.1480     1.4920 ha         1 C35       0.114000
    105 HC           6.2620    -2.9650    -2.6090 ha         1 C35       0.134000
    106 HD           7.6410    -5.0790     0.8870 ha         1 C35       0.134000
@<TRIPOS>BOND
     1     1     2 ar  
     2     1     7 ar  
     3     1    56 1   
     4     2     3 ar  
     5     2    57 1   
     6     3     4 1   
     7     3     5 ar  
     8     5     6 ar  
     9     5    58 1   
    10     6     7 ar  
    11     6    59 1   
    12     7     8 1   
    13     8     9 1   
    14     8    10 1   
    15     9    13 2   
    16    10    11 1   
    17    10    12 2   
    18    11    60 1   
    19    11    61 1   
    20    11    62 1   
    21    12    13 1   
    22    13    14 1   
    23    14    15 2   
    24    14    16 1   
    25    16    17 1   
    26    16    63 1   
    27    17    18 1   
    28    17    25 1   
    29    17    64 1   
    30    18    19 1   
    31    18    65 1   
    32    18    66 1   
    33    19    20 1   
    34    19    67 1   
    35    19    68 1   
    36    20    21 1   
    37    20    69 1   
    38    20    70 1   
    39    21    22 2   
    40    22    23 1   
    41    22    24 1   
    42    23    71 1   
    43    23    72 1   
    44    24    73 1   
    45    24    74 1   
    46    25    26 2   
    47    25    27 1   
    48    27    28 1   
    49    27    75 1   
    50    28    29 1   
    51    28    33 1   
    52    28    76 1   
    53    29    30 1   
    54    29    77 1   
    55    29    78 1   
    56    30    31 1   
    57    30    32 1   
    58    30    79 1   
    59    31    80 1   
    60    31    81 1   
    61    31    82 1   
    62    32    83 1   
    63    32    84 1   
    64    32    85 1   
    65    33    34 2   
    66    33    35 1   
    67    35    36 1   
    68    35    86 1   
    69    36    37 1   
    70    36    41 1   
    71    36    87 1   
    72    37    38 1   
    73    37    39 1   
    74    37    88 1   
    75    38    89 1   
    76    38    90 1   
    77    38    91 1   
    78    39    40 1   
    79    39    92 1   
    80    39    93 1   
    81    40    94 1   
    82    40    95 1   
    83    40    96 1   
    84    41    42 2   
    85    41    43 1   
    86    43    44 1   
    87    43    97 1   
    88    44    45 1   
    89    44    48 1   
    90    44    98 1   
    91    45    46 2   
    92    45    47 1   
    93    47   101 1   
    94    47   102 1   
    95    48    49 1   
    96    48    99 1   
    97    48   100 1   
    98    49    50 ar  
    99    49    55 ar  
   100    50    51 ar  
   101    50   103 1   
   102    51    52 ar  
   103    51   105 1   
   104    52    53 1   
   105    52    54 ar  
   106    54    55 ar  
   107    54   106 1   
   108    55   104 1   
@<TRIPOS>SUBSTRUCTURE
     1 C35         1 TEMP              0 ****  ****    0 ROOT
