@<TRIPOS>MOLECULE
C39
   82    82     1     0     0
SMALL
abcg2


@<TRIPOS>ATOM
      1 C1           8.2530     5.5800    -1.3380 c3         1 C39       0.146900
      2 O2           7.1570     4.7610    -1.0180 os         1 C39      -0.448000
      3 C3           7.5460     3.4660    -0.6390 c3         1 C39       0.161600
      4 C4           6.3070     2.6490    -0.3240 c3         1 C39      -0.086400
      5 C5           6.6940     1.2500     0.1100 c3         1 C39       0.165600
      6 O6           5.5030     0.5320     0.3890 os         1 C39      -0.326100
      7 C7           5.5930    -0.7290     0.8400 ca         1 C39       0.195100
      8 C8           6.7970    -1.4090     1.0110 ca         1 C39      -0.210000
      9 C9           6.7970    -2.7230     1.4640 ca         1 C39      -0.053000
     10 C10          5.6100    -3.3790     1.7410 ca         1 C39      -0.157000
     11 C11          4.4100    -2.7040     1.5590 ca         1 C39      -0.056000
     12 C12          4.3850    -1.3850     1.1200 ca         1 C39      -0.188600
     13 C13          3.0780    -0.6630     1.0140 c          1 C39       0.622700
     14 O14          2.8670     0.3980     1.5830 o          1 C39      -0.582100
     15 N15          2.1520    -1.2920     0.2750 ns         1 C39      -0.512900
     16 C16          0.7870    -0.8210     0.1600 c3         1 C39       0.105000
     17 C17         -0.0340    -1.7240    -0.7590 c3         1 C39      -0.070700
     18 C18          0.4940    -1.7210    -2.2110 c3         1 C39      -0.056700
     19 C19         -0.0820    -2.8790    -3.0220 c3         1 C39      -0.090600
     20 C20          0.2740    -0.3960    -2.9350 c3         1 C39      -0.090600
     21 C21         -1.5170    -1.3530    -0.6830 c3         1 C39      -0.098400
     22 C22         -2.2000    -1.5870     0.6660 c3         1 C39       0.132500
     23 N23         -2.1390    -2.9780     1.1150 n8         1 C39      -1.038200
     24 C24         -3.6880    -1.1780     0.5950 c3         1 C39       0.174300
     25 O25         -4.4300    -2.2060    -0.0220 oh         1 C39      -0.672000
     26 C26         -4.2230    -0.8450     1.9850 c3         1 C39      -0.098400
     27 C27         -5.7270    -0.5560     2.0450 c3         1 C39      -0.130700
     28 C28         -6.1600    -0.2460     3.4740 c3         1 C39      -0.081100
     29 C29         -6.0680     0.6070     1.1300 c          1 C39       0.598100
     30 O30         -5.7620     1.7600     1.4120 o          1 C39      -0.615100
     31 N31         -6.7000     0.2820    -0.0080 ns         1 C39      -0.502900
     32 C32         -7.1080     1.2500    -1.0020 c3         1 C39       0.105000
     33 C33         -8.4670     1.8770    -0.7150 c3         1 C39      -0.100400
     34 C34         -8.8680     2.8930    -1.7760 c3         1 C39      -0.072400
     35 C35        -10.2270     3.5210    -1.5010 c3         1 C39      -0.088100
     36 H1C1         7.8720     6.5650    -1.6050 h1         1 C39       0.029367
     37 H1C2         8.9440     5.6930    -0.4940 h1         1 C39       0.029367
     38 H1C3         8.8250     5.1880    -2.1880 h1         1 C39       0.029367
     39 H3C1         8.1200     2.9830    -1.4440 h1         1 C39       0.018200
     40 H3C2         8.2070     3.5000     0.2400 h1         1 C39       0.018200
     41 H4C1         5.7390     3.1360     0.4730 hc         1 C39       0.074200
     42 H4C2         5.6660     2.5980    -1.2080 hc         1 C39       0.074200
     43 H5C1         7.2650     0.7480    -0.6790 h1         1 C39       0.033200
     44 H5C2         7.3280     1.2900     1.0030 h1         1 C39       0.033200
     45 H8           7.7440    -0.9340     0.7940 ha         1 C39       0.120000
     46 H9           7.7440    -3.2310     1.5970 ha         1 C39       0.114000
     47 H10          5.6120    -4.4000     2.0950 ha         1 C39       0.119000
     48 H11          3.4770    -3.2050     1.7840 ha         1 C39       0.114000
     49 H15          2.4000    -2.1580    -0.1750 hn         1 C39       0.314500
     50 H161         0.3390    -0.7900     1.1560 h1         1 C39       0.052200
     51 H162         0.7800     0.2070    -0.2120 h1         1 C39       0.052200
     52 H17          0.0830    -2.7510    -0.3900 hc         1 C39       0.035700
     53 H18          1.5770    -1.8870    -2.1660 hc         1 C39       0.044700
     54 H211        -1.6430    -0.2980    -0.9450 hc         1 C39       0.060200
     55 H212        -2.0680    -1.9180    -1.4410 hc         1 C39       0.060200
     56 H191        -1.1530    -2.7680    -3.1970 hc         1 C39       0.035867
     57 H192         0.3980    -2.9380    -4.0000 hc         1 C39       0.035867
     58 H193         0.0770    -3.8350    -2.5190 hc         1 C39       0.035867
     59 H201         0.6890     0.4520    -2.3870 hc         1 C39       0.035867
     60 H202         0.7580    -0.4140    -3.9130 hc         1 C39       0.035867
     61 H203        -0.7870    -0.1980    -3.1000 hc         1 C39       0.035867
     62 H22         -1.7260    -0.9530     1.4220 h1         1 C39       0.054700
     63 H231        -1.7890    -3.5860     0.3870 hn         1 C39       0.408500
     64 H232        -1.5210    -3.0890     1.9050 hn         1 C39       0.408500
     65 H24         -3.7790    -0.2940    -0.0470 h1         1 C39       0.072700
     66 H25         -4.1150    -3.0160     0.4100 ho         1 C39       0.462000
     67 H261        -4.0100    -1.6760     2.6660 hc         1 C39       0.055700
     68 H262        -3.6720     0.0190     2.3710 hc         1 C39       0.055700
     69 H27         -6.2590    -1.4500     1.7080 hc         1 C39       0.057700
     70 H281        -7.2310    -0.0450     3.5380 hc         1 C39       0.041367
     71 H282        -5.9440    -1.0940     4.1250 hc         1 C39       0.041367
     72 H283        -5.6290     0.6200     3.8670 hc         1 C39       0.041367
     73 H31         -6.9150    -0.6860    -0.1770 hn         1 C39       0.320500
     74 H321        -6.3460     2.0300    -1.0730 h1         1 C39       0.050200
     75 H322        -7.1300     0.7430    -1.9680 h1         1 C39       0.050200
     76 H331        -9.2240     1.0890    -0.6530 hc         1 C39       0.047200
     77 H332        -8.4400     2.3620     0.2660 hc         1 C39       0.047200
     78 H341        -8.1080     3.6770    -1.8350 hc         1 C39       0.037200
     79 H342        -8.8800     2.4090    -2.7580 hc         1 C39       0.037200
     80 H351       -10.2380     4.0280    -0.5350 hc         1 C39       0.032367
     81 H352       -10.4900     4.2560    -2.2630 hc         1 C39       0.032367
     82 H353       -11.0150     2.7660    -1.4850 hc         1 C39       0.032367
@<TRIPOS>BOND
     1     1     2 1   
     2     1    36 1   
     3     1    37 1   
     4     1    38 1   
     5     2     3 1   
     6     3     4 1   
     7     3    39 1   
     8     3    40 1   
     9     4     5 1   
    10     4    41 1   
    11     4    42 1   
    12     5     6 1   
    13     5    43 1   
    14     5    44 1   
    15     6     7 1   
    16     7     8 ar  
    17     7    12 ar  
    18     8     9 ar  
    19     8    45 1   
    20     9    10 ar  
    21     9    46 1   
    22    10    11 ar  
    23    10    47 1   
    24    11    12 ar  
    25    11    48 1   
    26    12    13 1   
    27    13    14 2   
    28    13    15 1   
    29    15    16 1   
    30    15    49 1   
    31    16    17 1   
    32    16    50 1   
    33    16    51 1   
    34    17    18 1   
    35    17    21 1   
    36    17    52 1   
    37    18    19 1   
    38    18    20 1   
    39    18    53 1   
    40    19    56 1   
    41    19    57 1   
    42    19    58 1   
    43    20    59 1   
    44    20    60 1   
    45    20    61 1   
    46    21    22 1   
    47    21    54 1   
    48    21    55 1   
    49    22    23 1   
    50    22    24 1   
    51    22    62 1   
    52    23    63 1   
    53    23    64 1   
    54    24    25 1   
    55    24    26 1   
    56    24    65 1   
    57    25    66 1   
    58    26    27 1   
    59    26    67 1   
    60    26    68 1   
    61    27    28 1   
    62    27    29 1   
    63    27    69 1   
    64    28    70 1   
    65    28    71 1   
    66    28    72 1   
    67    29    30 2   
    68    29    31 1   
    69    31    32 1   
    70    31    73 1   
    71    32    33 1   
    72    32    74 1   
    73    32    75 1   
    74    33    34 1   
    75    33    76 1   
    76    33    77 1   
    77    34    35 1   
    78    34    78 1   
    79    34    79 1   
    80    35    80 1   
    81    35    81 1   
    82    35    82 1   
@<TRIPOS>SUBSTRUCTURE
     1 C39         1 TEMP              0 ****  ****    0 ROOT
