@<TRIPOS>MOLECULE
C39
   82    82     1     0     0
SMALL
No Charge or Current Charge


@<TRIPOS>ATOM
      1 C1           7.7870     5.3020    -2.7530 c3         1 C39       0.146900
      2 O2           6.8330     4.4220    -2.1350 os         1 C39      -0.448000
      3 C3           7.4090     3.2590    -1.5200 c3         1 C39       0.161600
      4 C4           6.2600     2.4350    -0.9140 c3         1 C39      -0.086400
      5 C5           6.7560     1.1540    -0.2220 c3         1 C39       0.165600
      6 O6           5.6050     0.4720     0.3010 os         1 C39      -0.326100
      7 C7           5.6880    -0.7250     0.9870 ca         1 C39       0.195100
      8 C8           6.9370    -1.3590     1.1920 ca         1 C39      -0.210000
      9 C9           7.0110    -2.5940     1.8520 ca         1 C39      -0.053000
     10 C10          5.8400    -3.2090     2.3110 ca         1 C39      -0.157000
     11 C11          4.5950    -2.5930     2.1150 ca         1 C39      -0.056000
     12 C12          4.5000    -1.3430     1.4530 ca         1 C39      -0.188600
     13 C13          3.1480    -0.6900     1.2600 c          1 C39       0.622700
     14 O14          2.9860     0.5200     1.1850 o          1 C39      -0.582100
     15 N15          2.0740    -1.5570     1.2410 ns         1 C39      -0.512900
     16 C16          0.6740    -1.1720     1.0190 c3         1 C39       0.105000
     17 C17          0.1080    -1.6910    -0.3370 c3         1 C39      -0.070700
     18 C18          0.9530    -1.2200    -1.5760 c3         1 C39      -0.056700
     19 C19          0.6010    -1.9870    -2.8750 c3         1 C39      -0.090600
     20 C20          0.9160     0.3100    -1.8220 c3         1 C39      -0.090600
     21 C21         -1.4180    -1.3670    -0.4830 c3         1 C39      -0.098400
     22 C22         -2.3630    -1.9540     0.6020 c3         1 C39       0.132500
     23 N23         -2.2890    -3.4450     0.5770 n8         1 C39      -1.038200
     24 C24         -3.8430    -1.5010     0.3920 c3         1 C39       0.174300
     25 O25         -4.3800    -2.4310    -0.5430 oh         1 C39      -0.672000
     26 C26         -4.6840    -1.5560     1.6970 c3         1 C39      -0.098400
     27 C27         -6.1720    -1.1310     1.5300 c3         1 C39      -0.130700
     28 C28         -6.9440    -1.1950     2.8690 c3         1 C39      -0.081100
     29 C29         -6.3000     0.2660     0.8850 c          1 C39       0.598100
     30 O30         -5.8640     1.2800     1.4120 o          1 C39      -0.615100
     31 N31         -6.9330     0.2890    -0.3380 ns         1 C39      -0.502900
     32 C32         -7.1930     1.4960    -1.1240 c3         1 C39       0.105000
     33 C33         -8.4040     2.2870    -0.5920 c3         1 C39      -0.100400
     34 C34         -8.7080     3.5520    -1.4230 c3         1 C39      -0.072400
     35 C35         -9.9180     4.3460    -0.8940 c3         1 C39      -0.088100
     36 H1C1         7.2770     6.1650    -3.1990 h1         1 C39       0.029367
     37 H1C2         8.5080     5.6760    -2.0140 h1         1 C39       0.029367
     38 H1C3         8.3400     4.7830    -3.5460 h1         1 C39       0.029367
     39 H3C1         7.9450     2.6530    -2.2620 h1         1 C39       0.018200
     40 H3C2         8.1130     3.5470    -0.7290 h1         1 C39       0.018200
     41 H4C1         5.7200     3.0510    -0.1850 hc         1 C39       0.074200
     42 H4C2         5.5530     2.1650    -1.7060 hc         1 C39       0.074200
     43 H5C1         7.2830     0.5240    -0.9520 h1         1 C39       0.033200
     44 H5C2         7.4510     1.4180     0.5860 h1         1 C39       0.033200
     45 H8           7.8620    -0.9120     0.8420 ha         1 C39       0.120000
     46 H9           7.9760    -3.0740     2.0060 ha         1 C39       0.114000
     47 H10          5.8970    -4.1660     2.8260 ha         1 C39       0.119000
     48 H11          3.7110    -3.0900     2.5060 ha         1 C39       0.114000
     49 H15          2.2920    -2.5420     1.3030 hn         1 C39       0.314500
     50 H161         0.0940    -1.5970     1.8470 h1         1 C39       0.052200
     51 H162         0.5670    -0.0820     1.0740 h1         1 C39       0.052200
     52 H17          0.2060    -2.7830    -0.3070 hc         1 C39       0.035700
     53 H18          2.0000    -1.4750    -1.3710 hc         1 C39       0.044700
     54 H211        -1.5420    -0.2770    -0.4830 hc         1 C39       0.060200
     55 H212        -1.7740    -1.7120    -1.4600 hc         1 C39       0.060200
     56 H191        -0.3880    -1.7060    -3.2550 hc         1 C39       0.035867
     57 H192         1.3340    -1.7650    -3.6600 hc         1 C39       0.035867
     58 H193         0.6120    -3.0700    -2.7050 hc         1 C39       0.035867
     59 H201         1.2070     0.8680    -0.9250 hc         1 C39       0.035867
     60 H202         1.6130     0.5850    -2.6220 hc         1 C39       0.035867
     61 H203        -0.0850     0.6400    -2.1230 hc         1 C39       0.035867
     62 H22         -2.0260    -1.5960     1.5850 h1         1 C39       0.054700
     63 H231        -1.3040    -3.7260     0.5040 hn         1 C39       0.408500
     64 H232        -2.5640    -3.8120     1.4980 hn         1 C39       0.408500
     65 H24         -3.8610    -0.4760    -0.0050 h1         1 C39       0.072700
     66 H25         -3.7150    -3.1650    -0.4280 ho         1 C39       0.462000
     67 H261        -4.6470    -2.5720     2.1100 hc         1 C39       0.055700
     68 H262        -4.2110    -0.9020     2.4400 hc         1 C39       0.055700
     69 H27         -6.6480    -1.8560     0.8580 hc         1 C39       0.057700
     70 H281        -7.9980    -0.9280     2.7190 hc         1 C39       0.041367
     71 H282        -6.9070    -2.2070     3.2900 hc         1 C39       0.041367
     72 H283        -6.5160    -0.5020     3.6030 hc         1 C39       0.041367
     73 H31         -7.2390    -0.6040    -0.7070 hn         1 C39       0.320500
     74 H321        -6.2980     2.1330    -1.1100 h1         1 C39       0.050200
     75 H322        -7.3790     1.1990    -2.1650 h1         1 C39       0.050200
     76 H331        -9.2860     1.6340    -0.5920 hc         1 C39       0.047200
     77 H332        -8.2190     2.5770     0.4500 hc         1 C39       0.047200
     78 H341        -7.8260     4.2060    -1.4250 hc         1 C39       0.037200
     79 H342        -8.8960     3.2660    -2.4650 hc         1 C39       0.037200
     80 H351        -9.7450     4.6770     0.1370 hc         1 C39       0.032367
     81 H352       -10.0940     5.2330    -1.5140 hc         1 C39       0.032367
     82 H353       -10.8250     3.7290    -0.9130 hc         1 C39       0.032367
@<TRIPOS>BOND
     1     1     2 1   
     2     1    36 1   
     3     1    37 1   
     4     1    38 1   
     5     2     3 1   
     6     3     4 1   
     7     3    39 1   
     8     3    40 1   
     9     4     5 1   
    10     4    41 1   
    11     4    42 1   
    12     5     6 1   
    13     5    43 1   
    14     5    44 1   
    15     6     7 1   
    16     7     8 ar  
    17     7    12 ar  
    18     8     9 ar  
    19     8    45 1   
    20     9    10 ar  
    21     9    46 1   
    22    10    11 ar  
    23    10    47 1   
    24    11    12 ar  
    25    11    48 1   
    26    12    13 1   
    27    13    14 2   
    28    13    15 1   
    29    15    16 1   
    30    15    49 1   
    31    16    17 1   
    32    16    50 1   
    33    16    51 1   
    34    17    18 1   
    35    17    21 1   
    36    17    52 1   
    37    18    19 1   
    38    18    20 1   
    39    18    53 1   
    40    19    56 1   
    41    19    57 1   
    42    19    58 1   
    43    20    59 1   
    44    20    60 1   
    45    20    61 1   
    46    21    22 1   
    47    21    54 1   
    48    21    55 1   
    49    22    23 1   
    50    22    24 1   
    51    22    62 1   
    52    23    63 1   
    53    23    64 1   
    54    24    25 1   
    55    24    26 1   
    56    24    65 1   
    57    25    66 1   
    58    26    27 1   
    59    26    67 1   
    60    26    68 1   
    61    27    28 1   
    62    27    29 1   
    63    27    69 1   
    64    28    70 1   
    65    28    71 1   
    66    28    72 1   
    67    29    30 2   
    68    29    31 1   
    69    31    32 1   
    70    31    73 1   
    71    32    33 1   
    72    32    74 1   
    73    32    75 1   
    74    33    34 1   
    75    33    76 1   
    76    33    77 1   
    77    34    35 1   
    78    34    78 1   
    79    34    79 1   
    80    35    80 1   
    81    35    81 1   
    82    35    82 1   
@<TRIPOS>SUBSTRUCTURE
     1 C39         1 TEMP              0 ****  ****    0 ROOT
