@<TRIPOS>MOLECULE
C3A
   76    80     1     0     0
SMALL
No Charge or Current Charge


@<TRIPOS>ATOM
      1 C2          10.1380     0.1440     2.1500 c2         1 C3A      -0.231200
      2 C5           7.0050    -0.2700     0.3200 c          1 C3A       0.640100
      3 C1          10.4740    -0.8130     3.0320 c2         1 C3A      -0.291000
      4 C3           9.3140    -0.0630     0.8970 c3         1 C3A       0.215800
      5 O4           7.9360    -0.0880     1.2940 os         1 C3A      -0.454100
      6 O6           7.2320    -0.4260    -0.8690 o          1 C3A      -0.541000
      7 C8           4.4850    -0.4340     0.1620 c3         1 C3A       0.043700
      8 C9           3.8440     0.9370    -0.1910 c3         1 C3A      -0.084400
      9 N7           5.7630    -0.2720     0.8920 ns         1 C3A      -0.488900
     10 C10          4.6950     1.8180    -1.1390 c3         1 C3A      -0.069400
     11 C11          4.0040     3.1350    -1.5700 c5         1 C3A      -0.070700
     12 C12          4.8430     4.0130    -2.5320 c5         1 C3A      -0.076400
     13 C13          4.0370     5.3240    -2.4360 c5         1 C3A       0.148800
     14 N14          3.8990     5.5090    -0.9740 n7         1 C3A      -0.856400
     15 C15          3.6980     4.1420    -0.4160 c5         1 C3A       0.149800
     16 C16          3.5040    -1.3300     0.9800 c          1 C3A       0.482600
     17 O17          3.6220    -1.4140     2.2050 o          1 C3A      -0.453100
     18 C18          2.4410    -2.0740     0.2080 cc         1 C3A       0.477500
     19 N19          2.3190    -1.9970    -1.1150 nd         1 C3A      -0.348300
     20 O20          1.2160    -2.8350    -1.3910 os         1 C3A      -0.074700
     21 C21          0.8060    -3.3200    -0.1910 cd         1 C3A       0.477300
     22 C22         -0.3740    -4.2460    -0.0950 c3         1 C3A      -0.064400
     23 C23         -1.7110    -3.5530    -0.3310 ca         1 C3A      -0.080300
     24 C24         -2.3600    -2.8900     0.7250 ca         1 C3A      -0.102000
     25 C25         -3.5900    -2.2410     0.5150 ca         1 C3A      -0.072500
     26 C26         -4.1950    -2.2410    -0.7670 ca         1 C3A      -0.141600
     27 C27         -3.5310    -2.9090    -1.8210 ca         1 C3A      -0.072500
     28 C28         -2.3020    -3.5560    -1.6060 ca         1 C3A      -0.102000
     29 C29         -5.5200    -1.5530    -1.0380 c          1 C3A       0.611700
     30 O30         -6.0330    -1.5590    -2.1510 o          1 C3A      -0.594100
     31 N31         -6.1160    -0.9210     0.0390 ns         1 C3A      -0.494900
     32 C32         -7.3870    -0.2130    -0.1730 c5         1 C3A       0.102700
     33 C33         -8.0190    -0.0350     1.2640 c5         1 C3A      -0.047100
     34 C34         -8.5530     1.3690     1.1540 ca         1 C3A      -0.089800
     35 C35         -9.4970     1.9760     1.9980 ca         1 C3A      -0.093000
     36 C36         -9.8760     3.3090     1.7500 ca         1 C3A      -0.109500
     37 C37         -9.3090     4.0170     0.6690 ca         1 C3A      -0.109500
     38 C38         -8.3610     3.3940    -0.1660 ca         1 C3A      -0.093000
     39 C39         -7.9980     2.0630     0.0960 ca         1 C3A      -0.089800
     40 C40         -7.0030     1.2360    -0.6750 c5         1 C3A      -0.047100
     41 N41          1.5180    -2.8900     0.8260 nc         1 C3A      -0.671000
     42 H2          10.4610     1.1770     2.3010 ha         1 C3A       0.180000
     43 H11A        11.0720    -0.5910     3.9180 ha         1 C3A       0.166500
     44 H12         10.1590    -1.8500     2.9020 ha         1 C3A       0.166500
     45 H31A         9.5010     0.7550     0.1880 h1         1 C3A       0.057700
     46 H32A         9.6000    -1.0070     0.4130 h1         1 C3A       0.057700
     47 H8           4.6940    -0.9700    -0.7740 h1         1 C3A       0.105700
     48 H91          2.8690     0.7650    -0.6640 hc         1 C3A       0.056700
     49 H92          3.6460     1.4860     0.7380 hc         1 C3A       0.056700
     50 HN7          5.7440    -0.1580     1.8990 hn         1 C3A       0.335500
     51 H101         5.6480     2.0560    -0.6500 hc         1 C3A       0.048700
     52 H102         4.9440     1.2320    -2.0320 hc         1 C3A       0.048700
     53 H11          3.0670     2.8500    -2.0640 hc         1 C3A       0.060700
     54 H121         5.8760     4.1420    -2.1880 hc         1 C3A       0.048200
     55 H122         4.8750     3.6140    -3.5520 hc         1 C3A       0.048200
     56 H131         4.5540     6.1720    -2.9080 h1         1 C3A       0.034700
     57 H132         3.0510     5.2180    -2.9100 h1         1 C3A       0.034700
     58 H14          4.8000     5.8570    -0.6220 hn         1 C3A       0.413000
     59 H151         2.6680     4.0120    -0.0550 h1         1 C3A       0.032200
     60 H152         4.3680     3.9900     0.4420 h1         1 C3A       0.032200
     61 H221        -0.2410    -5.0610    -0.8160 hc         1 C3A       0.088200
     62 H222        -0.3750    -4.7280     0.8890 hc         1 C3A       0.088200
     63 H24         -1.9110    -2.8750     1.7160 ha         1 C3A       0.124000
     64 H25         -4.0540    -1.7430     1.3610 ha         1 C3A       0.128500
     65 H27         -3.9660    -2.9280    -2.8190 ha         1 C3A       0.128500
     66 H28         -1.8110    -4.0590    -2.4360 ha         1 C3A       0.124000
     67 H31         -5.6350    -0.9580     0.9270 hn         1 C3A       0.312500
     68 H32         -8.0850    -0.7160    -0.8580 h1         1 C3A       0.086700
     69 H331        -8.8000    -0.7770     1.4620 hc         1 C3A       0.059700
     70 H332        -7.2820    -0.1050     2.0730 hc         1 C3A       0.059700
     71 H35         -9.9280     1.4250     2.8310 ha         1 C3A       0.115000
     72 H36        -10.6070     3.7940     2.3930 ha         1 C3A       0.113000
     73 H37         -9.6030     5.0480     0.4810 ha         1 C3A       0.113000
     74 H38         -7.9180     3.9350    -0.9990 ha         1 C3A       0.115000
     75 H401        -5.9760     1.5200    -0.4150 hc         1 C3A       0.059700
     76 H402        -7.1100     1.3340    -1.7610 hc         1 C3A       0.059700
@<TRIPOS>BOND
     1     1     3 2   
     2     1     4 1   
     3     1    42 1   
     4     2     5 1   
     5     2     6 2   
     6     2     9 1   
     7     3    43 1   
     8     3    44 1   
     9     4     5 1   
    10     4    45 1   
    11     4    46 1   
    12     7     8 1   
    13     7     9 1   
    14     7    16 1   
    15     7    47 1   
    16     8    10 1   
    17     8    48 1   
    18     8    49 1   
    19     9    50 1   
    20    10    11 1   
    21    10    51 1   
    22    10    52 1   
    23    11    12 1   
    24    11    15 1   
    25    11    53 1   
    26    12    13 1   
    27    12    54 1   
    28    12    55 1   
    29    13    14 1   
    30    13    56 1   
    31    13    57 1   
    32    14    15 1   
    33    14    58 1   
    34    15    59 1   
    35    15    60 1   
    36    16    17 2   
    37    16    18 1   
    38    18    19 2   
    39    18    41 1   
    40    19    20 1   
    41    20    21 1   
    42    21    22 1   
    43    21    41 2   
    44    22    23 1   
    45    22    61 1   
    46    22    62 1   
    47    23    24 ar  
    48    23    28 ar  
    49    24    25 ar  
    50    24    63 1   
    51    25    26 ar  
    52    25    64 1   
    53    26    27 ar  
    54    26    29 1   
    55    27    28 ar  
    56    27    65 1   
    57    28    66 1   
    58    29    30 2   
    59    29    31 1   
    60    31    32 1   
    61    31    67 1   
    62    32    33 1   
    63    32    40 1   
    64    32    68 1   
    65    33    34 1   
    66    33    69 1   
    67    33    70 1   
    68    34    35 ar  
    69    34    39 ar  
    70    35    36 ar  
    71    35    71 1   
    72    36    37 ar  
    73    36    72 1   
    74    37    38 ar  
    75    37    73 1   
    76    38    39 ar  
    77    38    74 1   
    78    39    40 1   
    79    40    75 1   
    80    40    76 1   
@<TRIPOS>SUBSTRUCTURE
     1 C3A         1 TEMP              0 ****  ****    0 ROOT
