@<TRIPOS>MOLECULE
C3A
   76    80     1     0     0
SMALL
bcc


@<TRIPOS>ATOM
      1 C2          10.0540    -0.4180     1.5930 c2         1 C3A      -0.181200
      2 C5           6.7080    -0.7700     0.3100 c          1 C3A       0.756100
      3 C1          10.7370    -0.9070     2.6190 c2         1 C3A      -0.191000
      4 C3           8.9550    -1.1590     0.9110 c3         1 C3A       0.192600
      5 O4           7.7980    -0.3120     0.9240 os         1 C3A      -0.430900
      6 O6           6.6330    -1.8440    -0.2510 o          1 C3A      -0.590000
      7 C8           4.4010    -0.2240    -0.1380 c3         1 C3A       0.043700
      8 C9           3.4850     1.0060    -0.1450 c3         1 C3A      -0.084400
      9 N7           5.6960     0.1190     0.3760 ns         1 C3A      -0.555900
     10 C10          3.9710     2.0910    -1.1000 c3         1 C3A      -0.069400
     11 C11          3.0050     3.2640    -1.1850 c5         1 C3A      -0.070700
     12 C12          3.4680     4.3740    -2.1590 c5         1 C3A      -0.076400
     13 C13          3.4530     5.6590    -1.3240 c5         1 C3A       0.148800
     14 N14          2.4970     5.3570    -0.2690 n7         1 C3A      -0.801200
     15 C15          2.8210     4.0050     0.1460 c5         1 C3A       0.149800
     16 C16          3.7600    -1.3260     0.6910 c          1 C3A       0.482600
     17 O17          4.0770    -1.5760     1.8240 o          1 C3A      -0.453100
     18 C18          2.6640    -2.1040     0.0500 cc         1 C3A       0.477500
     19 N19          2.3660    -1.9830    -1.2070 nd         1 C3A      -0.348300
     20 O20          1.3420    -2.8510    -1.3810 os         1 C3A      -0.119100
     21 C21          1.1030    -3.4310    -0.2050 cd         1 C3A       0.521700
     22 C22         -0.0100    -4.4080    -0.1100 c3         1 C3A      -0.064400
     23 C23         -1.3430    -3.7150    -0.2590 ca         1 C3A      -0.080300
     24 C24         -1.9030    -3.0410     0.8210 ca         1 C3A      -0.120000
     25 C25         -3.1160    -2.3840     0.6890 ca         1 C3A      -0.090500
     26 C26         -3.7920    -2.3910    -0.5290 ca         1 C3A      -0.141600
     27 C27         -3.2380    -3.0800    -1.6050 ca         1 C3A      -0.090500
     28 C28         -2.0190    -3.7260    -1.4740 ca         1 C3A      -0.120000
     29 C29         -5.1190    -1.7280    -0.7210 c          1 C3A       0.678700
     30 O30         -5.9070    -2.1290    -1.5660 o          1 C3A      -0.594100
     31 N31         -5.3810    -0.6880     0.0900 ns         1 C3A      -0.561900
     32 C32         -6.6120     0.0600     0.0330 c5         1 C3A       0.102700
     33 C33         -6.9520     0.7320     1.3720 c5         1 C3A      -0.047100
     34 C34         -7.8270     1.8760     0.9450 ca         1 C3A      -0.089800
     35 C35         -8.7120     2.6270     1.7010 ca         1 C3A      -0.111000
     36 C36         -9.4180     3.6570     1.0870 ca         1 C3A      -0.127500
     37 C37         -9.2350     3.9290    -0.2640 ca         1 C3A      -0.127500
     38 C38         -8.3450     3.1740    -1.0220 ca         1 C3A      -0.111000
     39 C39         -7.6440     2.1470    -0.4100 ca         1 C3A      -0.089800
     40 C40         -6.6320     1.2060    -0.9980 c5         1 C3A      -0.047100
     41 N41          1.8950    -3.0050     0.7190 nc         1 C3A      -0.671000
     42 H2          10.3120     0.5530     1.1810 ha         1 C3A       0.130000
     43 H11A        11.5590    -0.3600     3.0620 ha         1 C3A       0.116500
     44 H12         10.5080    -1.8750     3.0500 ha         1 C3A       0.116500
     45 H31A         9.2340    -1.3850    -0.1220 h1         1 C3A       0.057700
     46 H32A         8.7430    -2.1020     1.4190 h1         1 C3A       0.057700
     47 H8           4.4990    -0.5790    -1.1680 h1         1 C3A       0.105700
     48 H91          2.4810     0.6950    -0.4420 hc         1 C3A       0.056700
     49 H92          3.4000     1.3950     0.8750 hc         1 C3A       0.056700
     50 HN7          5.7850     0.9260     0.9730 hn         1 C3A       0.335500
     51 H101         4.9560     2.4590    -0.7940 hc         1 C3A       0.048700
     52 H102         4.1010     1.6530    -2.0950 hc         1 C3A       0.048700
     53 H11          2.0320     2.8860    -1.5110 hc         1 C3A       0.060700
     54 H121         4.4620     4.1750    -2.5640 hc         1 C3A       0.048200
     55 H122         2.7860     4.4480    -3.0060 hc         1 C3A       0.048200
     56 H131         4.4620     5.8620    -0.9350 h1         1 C3A       0.034700
     57 H132         3.1440     6.5360    -1.8970 h1         1 C3A       0.034700
     58 H14          2.5670     6.0120     0.4990 hn         1 C3A       0.357800
     59 H151         2.0270     3.5790     0.7630 h1         1 C3A       0.032200
     60 H152         3.7550     3.9490     0.7320 h1         1 C3A       0.032200
     61 H221         0.1140    -5.1720    -0.8800 hc         1 C3A       0.088200
     62 H222         0.0650    -4.9010     0.8590 hc         1 C3A       0.088200
     63 H24         -1.3980    -3.0400     1.7790 ha         1 C3A       0.142000
     64 H25         -3.5370    -1.8930     1.5570 ha         1 C3A       0.146500
     65 H27         -3.7580    -3.1050    -2.5530 ha         1 C3A       0.146500
     66 H28         -1.5970    -4.2510    -2.3220 ha         1 C3A       0.142000
     67 H31         -4.6290    -0.2910     0.6320 hn         1 C3A       0.312500
     68 H32         -7.4150    -0.6370    -0.2130 h1         1 C3A       0.086700
     69 H331        -7.4340     0.0480     2.0720 hc         1 C3A       0.059700
     70 H332        -6.0450     1.1090     1.8590 hc         1 C3A       0.059700
     71 H35         -8.8620     2.4130     2.7520 ha         1 C3A       0.133000
     72 H36        -10.1190     4.2460     1.6650 ha         1 C3A       0.131000
     73 H37         -9.7920     4.7310    -0.7320 ha         1 C3A       0.131000
     74 H38         -8.2100     3.3850    -2.0760 ha         1 C3A       0.133000
     75 H401        -5.6480     1.6840    -1.0500 hc         1 C3A       0.059700
     76 H402        -6.8800     0.8610    -2.0020 hc         1 C3A       0.059700
@<TRIPOS>BOND
     1     1     3 2   
     2     1     4 1   
     3     1    42 1   
     4     2     5 1   
     5     2     6 2   
     6     2     9 1   
     7     3    43 1   
     8     3    44 1   
     9     4     5 1   
    10     4    45 1   
    11     4    46 1   
    12     7     8 1   
    13     7     9 1   
    14     7    16 1   
    15     7    47 1   
    16     8    10 1   
    17     8    48 1   
    18     8    49 1   
    19     9    50 1   
    20    10    11 1   
    21    10    51 1   
    22    10    52 1   
    23    11    12 1   
    24    11    15 1   
    25    11    53 1   
    26    12    13 1   
    27    12    54 1   
    28    12    55 1   
    29    13    14 1   
    30    13    56 1   
    31    13    57 1   
    32    14    15 1   
    33    14    58 1   
    34    15    59 1   
    35    15    60 1   
    36    16    17 2   
    37    16    18 1   
    38    18    19 2   
    39    18    41 1   
    40    19    20 1   
    41    20    21 1   
    42    21    22 1   
    43    21    41 2   
    44    22    23 1   
    45    22    61 1   
    46    22    62 1   
    47    23    24 ar  
    48    23    28 ar  
    49    24    25 ar  
    50    24    63 1   
    51    25    26 ar  
    52    25    64 1   
    53    26    27 ar  
    54    26    29 1   
    55    27    28 ar  
    56    27    65 1   
    57    28    66 1   
    58    29    30 2   
    59    29    31 1   
    60    31    32 1   
    61    31    67 1   
    62    32    33 1   
    63    32    40 1   
    64    32    68 1   
    65    33    34 1   
    66    33    69 1   
    67    33    70 1   
    68    34    35 ar  
    69    34    39 ar  
    70    35    36 ar  
    71    35    71 1   
    72    36    37 ar  
    73    36    72 1   
    74    37    38 ar  
    75    37    73 1   
    76    38    39 ar  
    77    38    74 1   
    78    39    40 1   
    79    40    75 1   
    80    40    76 1   
@<TRIPOS>SUBSTRUCTURE
     1 C3A         1 TEMP              0 ****  ****    0 ROOT
