@<TRIPOS>MOLECULE
C3B
   34    35     1     0     0
SMALL
No Charge or Current Charge


@<TRIPOS>ATOM
      1 C1           0.0430    -0.2580     0.6150 c6         1 C3B       0.348700
      2 C2           0.6040    -1.5950     0.0230 c6         1 C3B       0.133300
      3 O2          -0.0150    -2.7690     0.5960 oh         1 C3B      -0.716000
      4 C3           2.1370    -1.6510     0.2700 c6         1 C3B       0.101300
      5 O3           2.7000    -2.8360    -0.3160 oh         1 C3B      -0.662000
      6 C4           2.8340    -0.3770    -0.2960 c6         1 C3B       0.108300
      7 O4           4.2530    -0.4480    -0.0260 oh         1 C3B      -0.722000
      8 C5           2.1690     0.8900     0.3410 c6         1 C3B       0.178300
      9 O5           0.7430     0.8840     0.0740 os         1 C3B      -0.427000
     10 C6           2.7590     2.2320    -0.2080 c3         1 C3B       0.171600
     11 O6           2.1160     3.4050     0.3350 oh         1 C3B      -0.709000
     12 N1          -1.4140    -0.0880     0.3910 n          1 C3B      -0.300000
     13 C7          -1.9070     0.2350    -0.8930 c          1 C3B       0.726400
     14 O1          -1.1920     0.3070    -1.8800 o          1 C3B      -0.540000
     15 N3          -3.2540     0.4480    -1.0450 nc         1 C3B      -0.775100
     16 C8          -4.0470     0.3370    -0.0360 cd         1 C3B       0.787500
     17 N4          -5.3170     0.5690    -0.2940 nv         1 C3B      -1.036200
     18 C9          -3.6360     0.0020     1.2670 cd         1 C3B      -0.485600
     19 C10         -2.2930    -0.2150     1.4640 cc         1 C3B       0.038600
     20 H1           0.2100    -0.2720     1.7020 h2         1 C3B       0.037700
     21 H2           0.4380    -1.5760    -1.0650 h1         1 C3B       0.097700
     22 HO2          0.6230    -3.5020     0.4110 ho         1 C3B       0.524000
     23 H3           2.3060    -1.6660     1.3580 h1         1 C3B       0.048700
     24 HO3          3.6730    -2.6750    -0.3310 ho         1 C3B       0.452000
     25 H4           2.6570    -0.3440    -1.3830 h1         1 C3B       0.067700
     26 HO4          4.7230     0.0340    -0.7480 ho         1 C3B       0.513000
     27 H5           2.3230     0.8730     1.4300 h1         1 C3B       0.057700
     28 H6           3.8320     2.2570     0.0240 h1         1 C3B       0.037700
     29 H6'A         2.6630     2.2230    -1.3030 h1         1 C3B       0.037700
     30 HO6          2.5060     4.1860    -0.1230 ho         1 C3B       0.505000
     31 HN4         -5.4620     1.0510    -1.1710 hn         1 C3B       0.500500
     32 HN4A        -5.8740     0.8950     0.4840 hn         1 C3B       0.500500
     33 H7          -4.3510    -0.0840     2.0760 ha         1 C3B       0.201000
     34 H8          -1.8160    -0.4850     2.4030 h4         1 C3B       0.199000
@<TRIPOS>BOND
     1     1     2 1   
     2     1     9 1   
     3     1    12 1   
     4     1    20 1   
     5     2     3 1   
     6     2     4 1   
     7     2    21 1   
     8     3    22 1   
     9     4     5 1   
    10     4     6 1   
    11     4    23 1   
    12     5    24 1   
    13     6     7 1   
    14     6     8 1   
    15     6    25 1   
    16     7    26 1   
    17     8     9 1   
    18     8    10 1   
    19     8    27 1   
    20    10    11 1   
    21    10    28 1   
    22    10    29 1   
    23    11    30 1   
    24    12    13 1   
    25    12    19 1   
    26    13    14 2   
    27    13    15 1   
    28    15    16 2   
    29    16    17 1   
    30    16    18 1   
    31    17    31 1   
    32    17    32 1   
    33    18    19 2   
    34    18    33 1   
    35    19    34 1   
@<TRIPOS>SUBSTRUCTURE
     1 C3B         1 TEMP              0 ****  ****    0 ROOT
