@<TRIPOS>MOLECULE
C3B
   34    35     1     0     0
SMALL
abcg2


@<TRIPOS>ATOM
      1 C1           0.0970    -0.2150     0.4830 c6         1 C3B       0.348700
      2 C2           0.6510    -1.4870    -0.1540 c6         1 C3B       0.133300
      3 O2          -0.0660    -2.5630     0.3920 oh         1 C3B      -0.716000
      4 C3           2.1360    -1.5490     0.1810 c6         1 C3B       0.101300
      5 O3           2.6700    -2.6890    -0.4530 oh         1 C3B      -0.662000
      6 C4           2.8370    -0.2680    -0.2690 c6         1 C3B       0.108300
      7 O4           4.1830    -0.2610     0.1470 oh         1 C3B      -0.722000
      8 C5           2.1360     0.9460     0.3450 c6         1 C3B       0.178300
      9 O5           0.7590     0.9210     0.0190 os         1 C3B      -0.427000
     10 C6           2.7020     2.2510    -0.1710 c3         1 C3B       0.171600
     11 O6           2.0750     3.3170     0.5020 oh         1 C3B      -0.709000
     12 N1          -1.3280    -0.0330     0.3000 n          1 C3B      -0.300000
     13 C7          -1.8920     0.0960    -0.9850 c          1 C3B       0.726400
     14 O1          -1.1690     0.0540    -1.9680 o          1 C3B      -0.540000
     15 N3          -3.2280     0.2630    -1.0770 nc         1 C3B      -0.775100
     16 C8          -3.9900     0.3120    -0.0030 cd         1 C3B       0.787500
     17 N4          -5.3000     0.4840    -0.1640 nv         1 C3B      -1.036200
     18 C9          -3.4520     0.1870     1.3150 cd         1 C3B      -0.485600
     19 C10         -2.1200     0.0180     1.4010 cc         1 C3B       0.038600
     20 H1           0.2390    -0.3160     1.5700 h2         1 C3B       0.037700
     21 H2           0.5390    -1.4370    -1.2420 h1         1 C3B       0.097700
     22 HO2          0.3140    -3.3790     0.0500 ho         1 C3B       0.524000
     23 H3           2.2400    -1.6310     1.2740 h1         1 C3B       0.048700
     24 HO3          3.4420    -2.9840     0.0370 ho         1 C3B       0.452000
     25 H4           2.7620    -0.1920    -1.3640 h1         1 C3B       0.067700
     26 HO4          4.7150    -0.7050    -0.5190 ho         1 C3B       0.513000
     27 H5           2.2620     0.9090     1.4410 h1         1 C3B       0.057700
     28 H6           3.7830     2.2450    -0.0040 h1         1 C3B       0.037700
     29 H6'A         2.5420     2.3020    -1.2570 h1         1 C3B       0.037700
     30 HO6          2.5050     4.1320     0.2320 ho         1 C3B       0.505000
     31 HN4         -5.6880     0.5820    -1.0870 hn         1 C3B       0.500500
     32 HN4A        -5.9250     0.5350     0.6200 hn         1 C3B       0.500500
     33 H7          -4.0710     0.2250     2.1990 ha         1 C3B       0.201000
     34 H8          -1.6220    -0.0820     2.3560 h4         1 C3B       0.199000
@<TRIPOS>BOND
     1     1     2 1   
     2     1     9 1   
     3     1    12 1   
     4     1    20 1   
     5     2     3 1   
     6     2     4 1   
     7     2    21 1   
     8     3    22 1   
     9     4     5 1   
    10     4     6 1   
    11     4    23 1   
    12     5    24 1   
    13     6     7 1   
    14     6     8 1   
    15     6    25 1   
    16     7    26 1   
    17     8     9 1   
    18     8    10 1   
    19     8    27 1   
    20    10    11 1   
    21    10    28 1   
    22    10    29 1   
    23    11    30 1   
    24    12    13 1   
    25    12    19 1   
    26    13    14 2   
    27    13    15 1   
    28    15    16 2   
    29    16    17 1   
    30    16    18 1   
    31    17    31 1   
    32    17    32 1   
    33    18    19 2   
    34    18    33 1   
    35    19    34 1   
@<TRIPOS>SUBSTRUCTURE
     1 C3B         1 TEMP              0 ****  ****    0 ROOT
