@<TRIPOS>MOLECULE
C3D
   62    66     1     0     0
SMALL
No Charge or Current Charge


@<TRIPOS>ATOM
      1 C1           2.6330     4.4820     0.1270 c6         1 C3D       0.051900
      2 C2           3.9070     4.8030    -0.7130 c6         1 C3D      -0.008400
      3 C3           4.1540     3.7000    -1.7730 c6         1 C3D      -0.069400
      4 C4           2.9740     3.6290    -2.7670 c6         1 C3D      -0.035100
      5 C5           1.5960     3.6640    -2.0950 ca         1 C3D      -0.033300
      6 C6           0.4650     3.2940    -2.8480 ca         1 C3D      -0.152000
      7 C7          -0.8140     3.3260    -2.2760 ca         1 C3D       0.140100
      8 C8          -0.9780     3.7300    -0.9440 ca         1 C3D      -0.207000
      9 C9           0.1420     4.1060    -0.1840 ca         1 C3D      -0.060000
     10 C10          1.4330     4.0810    -0.7500 ca         1 C3D      -0.111300
     11 C11          5.1310     5.1140     0.1700 ca         1 C3D      -0.072300
     12 C12          5.3530     6.4400     0.5960 ca         1 C3D      -0.104500
     13 C13          6.4490     6.7540     1.4170 ca         1 C3D      -0.111500
     14 C14          7.3350     5.7440     1.8250 ca         1 C3D      -0.113000
     15 C15          7.1210     4.4190     1.4120 ca         1 C3D      -0.111500
     16 C16          6.0260     4.1030     0.5900 ca         1 C3D      -0.104500
     17 C17          2.8930     3.4400     1.2320 ca         1 C3D      -0.113300
     18 C18          3.2670     3.8670     2.5220 ca         1 C3D      -0.065000
     19 C19          3.5210     2.9330     3.5410 ca         1 C3D      -0.174500
     20 C20          3.3970     1.5520     3.2790 ca         1 C3D       0.145100
     21 C21          3.0180     1.1240     1.9980 ca         1 C3D      -0.174500
     22 C22          2.7660     2.0580     0.9790 ca         1 C3D      -0.065000
     23 C24          4.0330     0.9250     5.5800 c3         1 C3D       0.162600
     24 C25          4.2150    -0.3910     6.3750 c3         1 C3D       0.164800
     25 C27          4.9420    -1.4690     8.5080 c5         1 C3D       0.157300
     26 C28          5.3350    -0.9290     9.9080 c5         1 C3D      -0.079400
     27 O7          -1.8970     2.9630    -3.0180 oh         1 C3D      -0.535100
     28 O23          3.6340     0.5880     4.2370 os         1 C3D      -0.353100
     29 N26          4.6890    -0.2150     7.7730 n3         1 C3D      -0.719600
     30 C29          4.5160     0.3940    10.0400 c5         1 C3D      -0.079400
     31 C30          3.7770     0.5160     8.6800 c5         1 C3D       0.157300
     32 H1           2.3530     5.4200     0.6270 hc         1 C3D       0.057700
     33 H2           3.6860     5.7200    -1.2790 hc         1 C3D       0.055700
     34 H31          4.2820     2.7220    -1.2930 hc         1 C3D       0.050200
     35 H32          5.0840     3.9030    -2.3210 hc         1 C3D       0.050200
     36 H41          3.0700     2.7210    -3.3780 hc         1 C3D       0.051200
     37 H42          3.0430     4.4740    -3.4670 hc         1 C3D       0.051200
     38 H6           0.5800     2.9820    -3.8830 ha         1 C3D       0.126000
     39 H8          -1.9660     3.7560    -0.4910 ha         1 C3D       0.113000
     40 H9           0.0090     4.4140     0.8510 ha         1 C3D       0.114000
     41 H12          4.6710     7.2310     0.2930 ha         1 C3D       0.112000
     42 H13          6.6110     7.7800     1.7390 ha         1 C3D       0.111500
     43 H14          8.1830     5.9860     2.4620 ha         1 C3D       0.111000
     44 H15          7.8020     3.6330     1.7340 ha         1 C3D       0.111500
     45 H16          5.8710     3.0690     0.2990 ha         1 C3D       0.112000
     46 H18          3.3740     4.9290     2.7340 ha         1 C3D       0.116000
     47 H19          3.8130     3.2990     4.5210 ha         1 C3D       0.121000
     48 H21          2.9210     0.0610     1.7930 ha         1 C3D       0.121000
     49 H22          2.4750     1.7020    -0.0070 ha         1 C3D       0.116000
     50 H241         4.9820     1.4760     5.5750 h1         1 C3D       0.041200
     51 H242         3.2680     1.5450     6.0650 h1         1 C3D       0.041200
     52 H251         3.2570    -0.9290     6.3720 h1         1 C3D       0.045200
     53 H252         4.9350    -1.0140     5.8270 h1         1 C3D       0.045200
     54 H272         4.0360    -2.0910     8.5620 h1         1 C3D       0.036450
     55 H281         6.4110    -0.7260     9.9590 hc         1 C3D       0.047200
     56 H282         5.1040    -1.6490    10.7010 hc         1 C3D       0.047200
     57 HO7         -2.6970     3.0490    -2.4560 ho         1 C3D       0.464000
     58 H291         3.8120     0.3680    10.8790 hc         1 C3D       0.047200
     59 H292         5.1820     1.2490    10.2030 hc         1 C3D       0.047200
     60 H301         2.7890     0.0340     8.7220 h1         1 C3D       0.036450
     61 H302         3.6330     1.5640     8.3860 h1         1 C3D       0.036450
     62 H271         5.7440    -2.0700     8.0570 h1         1 C3D       0.036450
@<TRIPOS>BOND
     1     1     2 1   
     2     1    10 1   
     3     1    17 1   
     4     1    32 1   
     5     2     3 1   
     6     2    11 1   
     7     2    33 1   
     8     3     4 1   
     9     3    34 1   
    10     3    35 1   
    11     4     5 1   
    12     4    36 1   
    13     4    37 1   
    14     5     6 ar  
    15     5    10 ar  
    16     6     7 ar  
    17     6    38 1   
    18     7     8 ar  
    19     7    27 1   
    20     8     9 ar  
    21     8    39 1   
    22     9    10 ar  
    23     9    40 1   
    24    11    12 ar  
    25    11    16 ar  
    26    12    13 ar  
    27    12    41 1   
    28    13    14 ar  
    29    13    42 1   
    30    14    15 ar  
    31    14    43 1   
    32    15    16 ar  
    33    15    44 1   
    34    16    45 1   
    35    17    18 ar  
    36    17    22 ar  
    37    18    19 ar  
    38    18    46 1   
    39    19    20 ar  
    40    19    47 1   
    41    20    21 ar  
    42    20    28 1   
    43    21    22 ar  
    44    21    48 1   
    45    22    49 1   
    46    23    24 1   
    47    23    28 1   
    48    23    50 1   
    49    23    51 1   
    50    24    29 1   
    51    24    52 1   
    52    24    53 1   
    53    25    26 1   
    54    25    29 1   
    55    25    54 1   
    56    25    62 1   
    57    26    30 1   
    58    26    55 1   
    59    26    56 1   
    60    27    57 1   
    61    29    31 1   
    62    30    31 1   
    63    30    58 1   
    64    30    59 1   
    65    31    60 1   
    66    31    61 1   
@<TRIPOS>SUBSTRUCTURE
     1 C3D         1 TEMP              0 ****  ****    0 ROOT
