@<TRIPOS>MOLECULE
C3D
   62    66     1     0     0
SMALL
abcg2


@<TRIPOS>ATOM
      1 C1           2.6430     4.4530     0.1930 c6         1 C3D       0.051900
      2 C2           3.9250     4.7000    -0.6440 c6         1 C3D      -0.008400
      3 C3           4.1530     3.5280    -1.5900 c6         1 C3D      -0.069400
      4 C4           3.0290     3.4730    -2.6130 c6         1 C3D      -0.035100
      5 C5           1.6570     3.6060    -2.0010 ca         1 C3D      -0.033300
      6 C6           0.5460     3.2550    -2.7650 ca         1 C3D      -0.152000
      7 C7          -0.7410     3.3850    -2.2630 ca         1 C3D       0.140100
      8 C8          -0.9240     3.8750    -0.9710 ca         1 C3D      -0.207000
      9 C9           0.1820     4.2180    -0.2150 ca         1 C3D      -0.060000
     10 C10          1.4800     4.0930    -0.7050 ca         1 C3D      -0.111300
     11 C11          5.0990     5.0540     0.2290 ca         1 C3D      -0.072300
     12 C12          5.2560     6.3720     0.6530 ca         1 C3D      -0.104500
     13 C13          6.2950     6.7370     1.4980 ca         1 C3D      -0.111500
     14 C14          7.2050     5.7810     1.9320 ca         1 C3D      -0.113000
     15 C15          7.0630     4.4660     1.5120 ca         1 C3D      -0.111500
     16 C16          6.0190     4.1060     0.6700 ca         1 C3D      -0.104500
     17 C17          2.8520     3.4230     1.2820 ca         1 C3D      -0.113300
     18 C18          3.3060     3.8080     2.5370 ca         1 C3D      -0.065000
     19 C19          3.5550     2.8860     3.5470 ca         1 C3D      -0.174500
     20 C20          3.3500     1.5310     3.3090 ca         1 C3D       0.145100
     21 C21          2.8830     1.1260     2.0590 ca         1 C3D      -0.174500
     22 C22          2.6350     2.0610     1.0700 ca         1 C3D      -0.065000
     23 C24          4.0350     0.9070     5.5020 c3         1 C3D       0.162600
     24 C25          4.1510    -0.3770     6.3050 c3         1 C3D       0.164800
     25 C27          5.0470    -1.3530     8.3250 c5         1 C3D       0.157300
     26 C28          5.3580    -0.8710     9.7390 c5         1 C3D      -0.079400
     27 O7          -1.7720     3.0260    -3.0580 oh         1 C3D      -0.535100
     28 O23          3.5640     0.5540     4.2150 os         1 C3D      -0.353100
     29 N26          4.7240    -0.1320     7.6070 n3         1 C3D      -0.719600
     30 C29          4.5310     0.4230     9.8870 c5         1 C3D      -0.079400
     31 C30          3.8710     0.6160     8.5180 c5         1 C3D       0.157300
     32 H1           2.3990     5.4000     0.6870 hc         1 C3D       0.057700
     33 H2           3.7120     5.5800    -1.2650 hc         1 C3D       0.055700
     34 H31          4.1950     2.5890    -1.0310 hc         1 C3D       0.050200
     35 H32          5.1100     3.6280    -2.1040 hc         1 C3D       0.050200
     36 H41          3.0830     2.5480    -3.1920 hc         1 C3D       0.051200
     37 H42          3.1640     4.2840    -3.3370 hc         1 C3D       0.051200
     38 H6           0.6870     2.8740    -3.7710 ha         1 C3D       0.126000
     39 H8          -1.9210     3.9910    -0.5600 ha         1 C3D       0.113000
     40 H9           0.0300     4.5920     0.7920 ha         1 C3D       0.114000
     41 H12          4.5510     7.1250     0.3170 ha         1 C3D       0.112000
     42 H13          6.3970     7.7680     1.8140 ha         1 C3D       0.111500
     43 H14          8.0200     6.0610     2.5870 ha         1 C3D       0.111000
     44 H15          7.7670     3.7130     1.8440 ha         1 C3D       0.111500
     45 H16          5.9230     3.0720     0.3650 ha         1 C3D       0.112000
     46 H18          3.4780     4.8570     2.7440 ha         1 C3D       0.116000
     47 H19          3.9090     3.2460     4.5040 ha         1 C3D       0.121000
     48 H21          2.7080     0.0740     1.8690 ha         1 C3D       0.121000
     49 H22          2.2520     1.7170     0.1170 ha         1 C3D       0.116000
     50 H241         5.0150     1.3950     5.4400 h1         1 C3D       0.041200
     51 H242         3.3430     1.6080     5.9810 h1         1 C3D       0.041200
     52 H251         3.1580    -0.8550     6.3780 h1         1 C3D       0.045200
     53 H252         4.8020    -1.0700     5.7660 h1         1 C3D       0.045200
     54 H272         4.1920    -2.0510     8.3410 h1         1 C3D       0.036450
     55 H281         6.4220    -0.6650     9.8510 hc         1 C3D       0.047200
     56 H282         5.0960    -1.6240    10.4830 hc         1 C3D       0.047200
     57 HO7         -2.6070     3.1370    -2.5910 ho         1 C3D       0.464000
     58 H291         3.7840     0.3530    10.6760 hc         1 C3D       0.047200
     59 H292         5.1760     1.2680    10.1300 hc         1 C3D       0.047200
     60 H301         2.8450     0.2110     8.5260 h1         1 C3D       0.036450
     61 H302         3.8010     1.6670     8.2330 h1         1 C3D       0.036450
     62 H271         5.8820    -1.8730     7.8510 h1         1 C3D       0.036450
@<TRIPOS>BOND
     1     1     2 1   
     2     1    10 1   
     3     1    17 1   
     4     1    32 1   
     5     2     3 1   
     6     2    11 1   
     7     2    33 1   
     8     3     4 1   
     9     3    34 1   
    10     3    35 1   
    11     4     5 1   
    12     4    36 1   
    13     4    37 1   
    14     5     6 ar  
    15     5    10 ar  
    16     6     7 ar  
    17     6    38 1   
    18     7     8 ar  
    19     7    27 1   
    20     8     9 ar  
    21     8    39 1   
    22     9    10 ar  
    23     9    40 1   
    24    11    12 ar  
    25    11    16 ar  
    26    12    13 ar  
    27    12    41 1   
    28    13    14 ar  
    29    13    42 1   
    30    14    15 ar  
    31    14    43 1   
    32    15    16 ar  
    33    15    44 1   
    34    16    45 1   
    35    17    18 ar  
    36    17    22 ar  
    37    18    19 ar  
    38    18    46 1   
    39    19    20 ar  
    40    19    47 1   
    41    20    21 ar  
    42    20    28 1   
    43    21    22 ar  
    44    21    48 1   
    45    22    49 1   
    46    23    24 1   
    47    23    28 1   
    48    23    50 1   
    49    23    51 1   
    50    24    29 1   
    51    24    52 1   
    52    24    53 1   
    53    25    26 1   
    54    25    29 1   
    55    25    54 1   
    56    25    62 1   
    57    26    30 1   
    58    26    55 1   
    59    26    56 1   
    60    27    57 1   
    61    29    31 1   
    62    30    31 1   
    63    30    58 1   
    64    30    59 1   
    65    31    60 1   
    66    31    61 1   
@<TRIPOS>SUBSTRUCTURE
     1 C3D         1 TEMP              0 ****  ****    0 ROOT
