@<TRIPOS>MOLECULE
C3E
   54    57     1     0     0
SMALL
No Charge or Current Charge


@<TRIPOS>ATOM
      1 Cl1          3.1240     2.5930    -2.6150 cl         1 C3E      -0.186000
      2 CAZ          2.1830     2.2760    -1.1560 ca         1 C3E       0.107000
      3 CD2          0.8030     2.0330    -1.2750 ca         1 C3E      -0.084000
      4 CG           0.0220     1.7630    -0.1340 ca         1 C3E      -0.081300
      5 CB          -1.4800     1.5090    -0.2780 c3         1 C3E      -0.039100
      6 CD1          0.6390     1.7640     1.1330 ca         1 C3E      -0.086000
      7 CAM          2.0230     1.9860     1.2550 ca         1 C3E      -0.126000
      8 CBB          2.8060     2.2370     0.1090 ca         1 C3E       0.117100
      9 OAV          4.1730     2.4410     0.1970 os         1 C3E      -0.346100
     10 CAO          4.9860     1.6980     1.1240 c3         1 C3E       0.198800
     11 CAF          4.8220     0.2340     0.7750 c2         1 C3E      -0.245200
     12 CAG          4.3740    -0.7300     1.5980 c2         1 C3E      -0.199200
     13 CAP          3.9710    -2.1160     1.1510 c3         1 C3E       0.198800
     14 OAW          2.5440    -2.0700     1.0120 os         1 C3E      -0.337100
     15 CBC          1.8090    -3.0170     0.3310 ca         1 C3E       0.184100
     16 CAJ          2.4140    -4.1630    -0.2290 ca         1 C3E      -0.205000
     17 CAH          1.6540    -5.0620    -0.9940 ca         1 C3E      -0.055000
     18 CAI          0.2900    -4.8170    -1.2100 ca         1 C3E      -0.152000
     19 CAK         -0.3220    -3.6820    -0.6530 ca         1 C3E      -0.046000
     20 CBD          0.4300    -2.7790     0.1330 ca         1 C3E      -0.189600
     21 CAX         -0.2350    -1.5830     0.7610 c          1 C3E       0.636700
     22 OAB         -0.0050    -1.2190     1.9060 o          1 C3E      -0.589100
     23 N           -1.2060    -0.9760    -0.0060 ns         1 C3E      -0.484900
     24 CA          -1.9990     0.2100     0.4040 c3         1 C3E       0.036700
     25 C           -3.5070    -0.0180     0.1010 c          1 C3E       0.586100
     26 O           -3.9170    -0.9290    -0.6090 o          1 C3E      -0.570100
     27 NAU         -4.3690     0.8860     0.6930 ns         1 C3E      -0.480900
     28 CBF         -5.8060     0.8760     0.5370 cx         1 C3E       0.088500
     29 CAE         -6.2500     1.4040    -0.7480 c1         1 C3E       0.321900
     30 NAA         -6.5960     1.8600    -1.7640 n1         1 C3E      -0.444000
     31 CAQ         -6.6330     1.1570     1.7720 cx         1 C3E      -0.097400
     32 CAR         -6.5850    -0.2390     1.2000 cx         1 C3E      -0.097400
     33 H1           0.3450     2.0530    -2.2600 ha         1 C3E       0.128000
     34 H2          -2.0260     2.3690     0.1290 hc         1 C3E       0.062200
     35 H3          -1.7480     1.4650    -1.3410 hc         1 C3E       0.062200
     36 H4           0.0500     1.5820     2.0290 ha         1 C3E       0.115000
     37 H5           2.4730     1.9700     2.2430 ha         1 C3E       0.125000
     38 H6           6.0400     1.9870     1.0190 h1         1 C3E       0.058200
     39 H7           4.6910     1.8910     2.1630 h1         1 C3E       0.058200
     40 H8           4.9910     0.0200    -0.2820 ha         1 C3E       0.187000
     41 H9           4.1490    -0.5180     2.6450 ha         1 C3E       0.188000
     42 H10          4.4540    -2.3430     0.1920 h1         1 C3E       0.045700
     43 H11          4.2730    -2.8710     1.8890 h1         1 C3E       0.045700
     44 H12          3.4700    -4.3700    -0.0870 ha         1 C3E       0.119000
     45 H13          2.1230    -5.9450    -1.4250 ha         1 C3E       0.114000
     46 H14         -0.2980    -5.5130    -1.8050 ha         1 C3E       0.121000
     47 H15         -1.3870    -3.5270    -0.8120 ha         1 C3E       0.130000
     48 H16         -1.3610    -1.3630    -0.9300 hn         1 C3E       0.329500
     49 H17         -1.9220     0.3310     1.4920 h1         1 C3E       0.093700
     50 H18         -3.9440     1.6090     1.2640 hn         1 C3E       0.326500
     51 H19         -6.1110     1.3370     2.7090 hc         1 C3E       0.089700
     52 H20         -7.5570     1.7190     1.6560 hc         1 C3E       0.089700
     53 H21         -7.4760    -0.6110     0.6980 hc         1 C3E       0.089700
     54 H22         -6.0270    -0.9930     1.7490 hc         1 C3E       0.089700
@<TRIPOS>BOND
     1     1     2 1   
     2     2     3 ar  
     3     2     8 ar  
     4     3     4 ar  
     5     3    33 1   
     6     4     5 1   
     7     4     6 ar  
     8     5    24 1   
     9     5    34 1   
    10     5    35 1   
    11     6     7 ar  
    12     6    36 1   
    13     7     8 ar  
    14     7    37 1   
    15     8     9 1   
    16     9    10 1   
    17    10    11 1   
    18    10    38 1   
    19    10    39 1   
    20    11    12 2   
    21    11    40 1   
    22    12    13 1   
    23    12    41 1   
    24    13    14 1   
    25    13    42 1   
    26    13    43 1   
    27    14    15 1   
    28    15    16 ar  
    29    15    20 ar  
    30    16    17 ar  
    31    16    44 1   
    32    17    18 ar  
    33    17    45 1   
    34    18    19 ar  
    35    18    46 1   
    36    19    20 ar  
    37    19    47 1   
    38    20    21 1   
    39    21    22 2   
    40    21    23 1   
    41    23    24 1   
    42    23    48 1   
    43    24    25 1   
    44    24    49 1   
    45    25    26 2   
    46    25    27 1   
    47    27    28 1   
    48    27    50 1   
    49    28    29 1   
    50    28    31 1   
    51    28    32 1   
    52    29    30 3   
    53    31    32 1   
    54    31    51 1   
    55    31    52 1   
    56    32    53 1   
    57    32    54 1   
@<TRIPOS>SUBSTRUCTURE
     1 C3E         1 TEMP              0 ****  ****    0 ROOT
