@<TRIPOS>MOLECULE
C3E
   54    57     1     0     0
SMALL
abcg2


@<TRIPOS>ATOM
      1 CL1          3.4810     1.6080    -2.3430 cl         1 C3E      -0.186000
      2 CAZ          2.3630     1.9140    -1.0610 ca         1 C3E       0.107000
      3 CD2          1.0110     1.6880    -1.2650 ca         1 C3E      -0.084000
      4 CG           0.1010     1.9120    -0.2410 ca         1 C3E      -0.081300
      5 CB          -1.3570     1.6020    -0.4320 c3         1 C3E      -0.039100
      6 CD1          0.5750     2.3880     0.9790 ca         1 C3E      -0.086000
      7 CAM          1.9250     2.6150     1.1790 ca         1 C3E      -0.126000
      8 CBB          2.8420     2.3720     0.1620 ca         1 C3E       0.117100
      9 OAV          4.1720     2.5770     0.3290 os         1 C3E      -0.346100
     10 CAO          4.8160     1.6670     1.2340 c3         1 C3E       0.198800
     11 CAF          4.5980     0.2540     0.8040 c2         1 C3E      -0.245200
     12 CAG          3.8920    -0.6180     1.5120 c2         1 C3E      -0.199200
     13 CAP          3.5760    -1.9960     1.0380 c3         1 C3E       0.198800
     14 OAW          2.1550    -2.0870     1.0190 os         1 C3E      -0.337100
     15 CBC          1.5580    -3.0370     0.2840 ca         1 C3E       0.184100
     16 CAJ          2.2090    -4.1270    -0.2850 ca         1 C3E      -0.205000
     17 CAH          1.4890    -5.0350    -1.0540 ca         1 C3E      -0.055000
     18 CAI          0.1310    -4.8690    -1.2700 ca         1 C3E      -0.152000
     19 CAK         -0.5160    -3.7790    -0.7000 ca         1 C3E      -0.046000
     20 CBD          0.1820    -2.8720     0.0810 ca         1 C3E      -0.189600
     21 CAX         -0.5380    -1.7440     0.7520 c          1 C3E       0.636700
     22 OAB         -0.7280    -1.7260     1.9570 o          1 C3E      -0.589100
     23 N           -0.9680    -0.7870    -0.0870 ns         1 C3E      -0.484900
     24 CA          -1.7600     0.3300     0.3360 c3         1 C3E       0.036700
     25 C           -3.2450     0.0380     0.1260 c          1 C3E       0.586100
     26 O           -3.6450    -0.7990    -0.6570 o          1 C3E      -0.570100
     27 NAU         -4.0770     0.8110     0.8590 ns         1 C3E      -0.480900
     28 CBF         -5.4860     0.7260     0.7160 cx         1 C3E       0.088500
     29 CAE         -6.0030     1.3030    -0.5020 c1         1 C3E       0.321900
     30 NAA         -6.4080     1.7650    -1.4760 n1         1 C3E      -0.444000
     31 CAQ         -6.3350     0.8400     1.9560 cx         1 C3E      -0.097400
     32 CAR         -6.2170    -0.4710     1.2710 cx         1 C3E      -0.097400
     33 H1           0.6700     1.3210    -2.2250 ha         1 C3E       0.128000
     34 H2          -1.9680     2.4360    -0.0820 hc         1 C3E       0.062200
     35 H3          -1.5810     1.4720    -1.4930 hc         1 C3E       0.062200
     36 H4          -0.1190     2.5790     1.7890 ha         1 C3E       0.115000
     37 H5           2.2760     2.9840     2.1350 ha         1 C3E       0.125000
     38 H6           5.8710     1.9410     1.2060 h1         1 C3E       0.058200
     39 H7           4.4550     1.8200     2.2560 h1         1 C3E       0.058200
     40 H8           4.9950    -0.0280    -0.1670 ha         1 C3E       0.187000
     41 H9           3.4820    -0.3310     2.4770 ha         1 C3E       0.188000
     42 H10          3.9920    -2.1590     0.0380 h1         1 C3E       0.045700
     43 H11          3.9910    -2.7590     1.7050 h1         1 C3E       0.045700
     44 H12          3.2690    -4.2830    -0.1390 ha         1 C3E       0.119000
     45 H13          2.0080    -5.8800    -1.4880 ha         1 C3E       0.114000
     46 H14         -0.4220    -5.5770    -1.8720 ha         1 C3E       0.121000
     47 H15         -1.5780    -3.6340    -0.8610 ha         1 C3E       0.130000
     48 H16         -0.7880    -0.8990    -1.0730 hn         1 C3E       0.329500
     49 H17         -1.5770     0.4910     1.4010 h1         1 C3E       0.093700
     50 H18         -3.7040     1.5380     1.4520 hn         1 C3E       0.326500
     51 H19         -5.7900     0.9930     2.8780 hc         1 C3E       0.089700
     52 H20         -7.2610     1.3920     1.8750 hc         1 C3E       0.089700
     53 H21         -7.0620    -0.8410     0.7070 hc         1 C3E       0.089700
     54 H22         -5.5940    -1.2340     1.7180 hc         1 C3E       0.089700
@<TRIPOS>BOND
     1     1     2 1   
     2     2     3 ar  
     3     2     8 ar  
     4     3     4 ar  
     5     3    33 1   
     6     4     5 1   
     7     4     6 ar  
     8     5    24 1   
     9     5    34 1   
    10     5    35 1   
    11     6     7 ar  
    12     6    36 1   
    13     7     8 ar  
    14     7    37 1   
    15     8     9 1   
    16     9    10 1   
    17    10    11 1   
    18    10    38 1   
    19    10    39 1   
    20    11    12 2   
    21    11    40 1   
    22    12    13 1   
    23    12    41 1   
    24    13    14 1   
    25    13    42 1   
    26    13    43 1   
    27    14    15 1   
    28    15    16 ar  
    29    15    20 ar  
    30    16    17 ar  
    31    16    44 1   
    32    17    18 ar  
    33    17    45 1   
    34    18    19 ar  
    35    18    46 1   
    36    19    20 ar  
    37    19    47 1   
    38    20    21 1   
    39    21    22 2   
    40    21    23 1   
    41    23    24 1   
    42    23    48 1   
    43    24    25 1   
    44    24    49 1   
    45    25    26 2   
    46    25    27 1   
    47    27    28 1   
    48    27    50 1   
    49    28    29 1   
    50    28    31 1   
    51    28    32 1   
    52    29    30 3   
    53    31    32 1   
    54    31    51 1   
    55    31    52 1   
    56    32    53 1   
    57    32    54 1   
@<TRIPOS>SUBSTRUCTURE
     1 C3E         1 TEMP              0 ****  ****    0 ROOT
