@<TRIPOS>MOLECULE
C3F
   41    43     1     0     0
SMALL
abcg2


@<TRIPOS>ATOM
      1 O4          -4.2020     2.5820     0.7880 o          1 C3F      -0.509000
      2 C4          -3.0460     2.5070     0.4360 c          1 C3F       0.485500
      3 N3          -2.2500     3.5950     0.2390 ns         1 C3F      -0.500500
      4 C2          -0.9130     3.5890    -0.1660 c          1 C3F       0.731400
      5 O2          -0.3390     4.6530    -0.2940 o          1 C3F      -0.513000
      6 N1          -0.3050     2.3980    -0.4000 nc         1 C3F      -0.443400
      7 C4A         -2.3520     1.2240     0.1780 cd         1 C3F       0.204500
      8 C10         -0.9750     1.2900    -0.2450 cd         1 C3F       0.111000
      9 N5          -3.0090     0.1280     0.3430 nc         1 C3F      -0.528000
     10 C5A         -2.3720    -1.0440     0.1300 ca         1 C3F       0.152000
     11 C6          -3.0760    -2.2440     0.3290 ca         1 C3F      -0.024000
     12 C7          -2.4800    -3.4660     0.1520 ca         1 C3F      -0.114300
     13 C7M         -3.2440    -4.7370     0.3660 c3         1 C3F      -0.040800
     14 C8          -1.1130    -3.5020    -0.2280 ca         1 C3F      -0.005300
     15 C8M         -0.4230    -4.8170    -0.4070 c3         1 C3F      -0.059800
     16 C9          -0.4090    -2.3320    -0.4380 ca         1 C3F      -0.151000
     17 C9A         -1.0230    -1.0850    -0.2790 ca         1 C3F       0.017000
     18 N10         -0.3700     0.1040    -0.5040 na         1 C3F      -0.003000
     19 C1           1.0040     0.1140    -1.0100 c3         1 C3F       0.055600
     20 C11          2.0360     0.0460     0.1050 c3         1 C3F      -0.112400
     21 C3           3.4460     0.0500    -0.4710 c3         1 C3F       0.118000
     22 C5           5.7940    -0.1080     0.3120 c          1 C3F       0.727000
     23 N2           4.4200     0.0170     0.5900 ns         1 C3F      -0.552900
     24 O3           6.5680     0.1920     1.2470 o          1 C3F      -0.742500
     25 O1           6.1080    -0.5290    -0.8210 o          1 C3F      -0.742500
     26 H3          -2.6640     4.5040     0.4050 hn         1 C3F       0.331500
     27 H6          -4.1140    -2.1700     0.6280 ha         1 C3F       0.134000
     28 H7M1        -3.2100    -5.3770    -0.5170 hc         1 C3F       0.042367
     29 H7M2        -2.8300    -5.3150     1.1940 hc         1 C3F       0.042367
     30 H7M3        -4.2890    -4.5330     0.5930 hc         1 C3F       0.042367
     31 H8M1        -0.8780    -5.3890    -1.2180 hc         1 C3F       0.051700
     32 H8M2         0.6320    -4.6870    -0.6390 hc         1 C3F       0.051700
     33 H8M3        -0.4990    -5.4300     0.4920 hc         1 C3F       0.051700
     34 H9           0.6340    -2.4060    -0.7110 ha         1 C3F       0.148000
     35 H1'1         1.1110    -0.7150    -1.7080 h1         1 C3F       0.075700
     36 H1'2         1.1280     1.0280    -1.5840 h1         1 C3F       0.075700
     37 H2'1         1.9010     0.9040     0.7680 hc         1 C3F       0.050200
     38 H2'2         1.8930    -0.8520     0.7110 hc         1 C3F       0.050200
     39 H3'1         3.5770    -0.8280    -1.1070 h1         1 C3F       0.021700
     40 H3'2         3.5590     0.9250    -1.1300 h1         1 C3F       0.021700
     41 H1           4.2150     0.6330     1.3610 hn         1 C3F       0.249500
@<TRIPOS>BOND
     1     1     2 2   
     2     2     3 1   
     3     2     7 1   
     4     3     4 1   
     5     3    26 1   
     6     4     5 2   
     7     4     6 1   
     8     6     8 2   
     9     7     8 1   
    10     7     9 2   
    11     8    18 1   
    12     9    10 1   
    13    10    11 ar  
    14    10    17 ar  
    15    11    12 ar  
    16    11    27 1   
    17    12    13 1   
    18    12    14 ar  
    19    13    28 1   
    20    13    29 1   
    21    13    30 1   
    22    14    15 1   
    23    14    16 ar  
    24    15    31 1   
    25    15    32 1   
    26    15    33 1   
    27    16    17 ar  
    28    16    34 1   
    29    17    18 1   
    30    18    19 1   
    31    19    20 1   
    32    19    35 1   
    33    19    36 1   
    34    20    21 1   
    35    20    37 1   
    36    20    38 1   
    37    21    23 1   
    38    21    39 1   
    39    21    40 1   
    40    22    23 1   
    41    22    24 1   
    42    22    25 1   
    43    23    41 1   
@<TRIPOS>SUBSTRUCTURE
     1 C3F         1 TEMP              0 ****  ****    0 ROOT
