@<TRIPOS>MOLECULE
C3F
   41    43     1     0     0
SMALL
No Charge or Current Charge


@<TRIPOS>ATOM
      1 O4          -4.3370     2.7340     0.7470 o          1 C3F      -0.509000
      2 C4          -3.1680     2.5810     0.4150 c          1 C3F       0.485500
      3 N3          -2.3480     3.6610     0.2430 ns         1 C3F      -0.500500
      4 C2          -1.0380     3.6680    -0.1210 c          1 C3F       0.731400
      5 O2          -0.4300     4.7170    -0.2360 o          1 C3F      -0.513000
      6 N1          -0.4470     2.4430    -0.3520 nc         1 C3F      -0.443400
      7 C4A         -2.4900     1.2640     0.1630 cd         1 C3F       0.204500
      8 C10         -1.0990     1.2900    -0.2270 cd         1 C3F       0.111000
      9 N5          -3.1980     0.1360     0.3070 nc         1 C3F      -0.528000
     10 C5A         -2.4380    -1.0230     0.0960 ca         1 C3F       0.152000
     11 C6          -3.1180    -2.2400     0.2930 ca         1 C3F      -0.024000
     12 C7          -2.4810    -3.4840     0.1550 ca         1 C3F      -0.114300
     13 C7M         -3.2770    -4.7670     0.3880 c3         1 C3F      -0.040800
     14 C8          -1.1160    -3.5190    -0.1840 ca         1 C3F      -0.005300
     15 C8M         -0.3730    -4.8450    -0.3300 c3         1 C3F      -0.059800
     16 C9          -0.4260    -2.3120    -0.3930 ca         1 C3F      -0.151000
     17 C9A         -1.0650    -1.0480    -0.2750 ca         1 C3F       0.017000
     18 N10         -0.3450     0.1440    -0.5210 na         1 C3F      -0.003000
     19 C1           1.0420     0.1440    -1.0640 c3         1 C3F       0.055600
     20 C11          2.1260     0.0600     0.0330 c3         1 C3F      -0.112400
     21 C3           3.5520     0.0400    -0.5460 c3         1 C3F       0.118000
     22 C5           5.9090    -0.0880     0.3040 c          1 C3F       0.727000
     23 N2           4.5610    -0.0380     0.5080 ns         1 C3F      -0.552900
     24 O3           6.6040    -0.1520     1.2980 o          1 C3F      -0.742500
     25 O1           6.3390    -0.0670    -0.8340 o          1 C3F      -0.742500
     26 H3          -2.7580     4.5680     0.4030 hn         1 C3F       0.331500
     27 H6          -4.1690    -2.2090     0.5700 ha         1 C3F       0.134000
     28 H7M1        -3.2720    -5.4030    -0.5050 hc         1 C3F       0.042367
     29 H7M2        -2.8570    -5.3470     1.2190 hc         1 C3F       0.042367
     30 H7M3        -4.3250    -4.5590     0.6340 hc         1 C3F       0.042367
     31 H8M1        -0.8200    -5.4620    -1.1180 hc         1 C3F       0.051700
     32 H8M2         0.6810    -4.6980    -0.5900 hc         1 C3F       0.051700
     33 H8M3        -0.4010    -5.4170     0.6050 hc         1 C3F       0.051700
     34 H9           0.6270    -2.3840    -0.6450 ha         1 C3F       0.148000
     35 H1'1         1.1590    -0.6790    -1.7790 h1         1 C3F       0.075700
     36 H1'2         1.2000     1.0600    -1.6480 h1         1 C3F       0.075700
     37 H2'1         2.0220     0.9200     0.7060 hc         1 C3F       0.050200
     38 H2'2         1.9700    -0.8410     0.6380 hc         1 C3F       0.050200
     39 H3'1         3.6660    -0.8270    -1.2090 h1         1 C3F       0.021700
     40 H3'2         3.7230     0.9530    -1.1310 h1         1 C3F       0.021700
     41 H1           4.2550    -0.0580     1.4710 hn         1 C3F       0.249500
@<TRIPOS>BOND
     1     1     2 2   
     2     2     3 1   
     3     2     7 1   
     4     3     4 1   
     5     3    26 1   
     6     4     5 2   
     7     4     6 1   
     8     6     8 2   
     9     7     8 1   
    10     7     9 2   
    11     8    18 1   
    12     9    10 1   
    13    10    11 ar  
    14    10    17 ar  
    15    11    12 ar  
    16    11    27 1   
    17    12    13 1   
    18    12    14 ar  
    19    13    28 1   
    20    13    29 1   
    21    13    30 1   
    22    14    15 1   
    23    14    16 ar  
    24    15    31 1   
    25    15    32 1   
    26    15    33 1   
    27    16    17 ar  
    28    16    34 1   
    29    17    18 1   
    30    18    19 1   
    31    19    20 1   
    32    19    35 1   
    33    19    36 1   
    34    20    21 1   
    35    20    37 1   
    36    20    38 1   
    37    21    23 1   
    38    21    39 1   
    39    21    40 1   
    40    22    23 1   
    41    22    24 1   
    42    22    25 1   
    43    23    41 1   
@<TRIPOS>SUBSTRUCTURE
     1 C3F         1 TEMP              0 ****  ****    0 ROOT
