@<TRIPOS>MOLECULE
C3G
   34    35     1     0     0
SMALL
No Charge or Current Charge


@<TRIPOS>ATOM
      1 C10          2.4420     2.5890    -0.6150 c          1 C3G       0.733000
      2 C15         -2.5320    -1.6400    -0.8800 ca         1 C3G      -0.180000
      3 C17         -4.1210    -0.0400     0.0580 ca         1 C3G      -0.238200
      4 C02          3.4480    -1.0430     0.5450 c6         1 C3G       0.168300
      5 C03          2.2170    -1.7800    -0.0520 c6         1 C3G       0.101300
      6 C05          0.9600    -0.8730     0.1430 c6         1 C3G       0.357300
      7 C07          2.2880     1.1730     0.0360 c6         1 C3G      -0.021700
      8 C08          3.6100     0.3650    -0.1100 c6         1 C3G       0.175300
      9 C14         -1.4690    -0.9900    -0.2370 ca         1 C3G       0.221100
     10 C16         -3.8500    -1.1750    -0.7400 ca         1 C3G      -0.012000
     11 C18         -3.0510     0.6140     0.7090 ca         1 C3G      -0.012000
     12 C19         -1.7350     0.1410     0.5640 ca         1 C3G      -0.180000
     13 O01          4.6360    -1.8310     0.3620 oh         1 C3G      -0.638000
     14 O04          2.0620    -3.0930     0.5490 oh         1 C3G      -0.732000
     15 O06          1.1820     0.3900    -0.5200 os         1 C3G      -0.427000
     16 O09          4.7270     1.0520     0.4780 oh         1 C3G      -0.761000
     17 O11          1.9670     2.7280    -1.7370 o          1 C3G      -0.693000
     18 O12          2.4150     3.5320     0.1670 o          1 C3G      -0.693000
     19 O13         -0.2030    -1.5140    -0.4150 os         1 C3G      -0.343100
     20 O21         -6.4300    -0.1420    -0.3780 o          1 C3G      -0.422000
     21 O22         -5.7150     1.4570     0.9220 o          1 C3G      -0.422000
     22 H2           3.2650    -0.9010     1.6220 h1         1 C3G       0.040700
     23 H3           2.3770    -1.8870    -1.1360 h1         1 C3G       0.066700
     24 H4           0.8020    -0.7070     1.2190 h2         1 C3G       0.034700
     25 H5           2.0860     1.3300     1.1060 h1         1 C3G       0.029700
     26 H6           3.7960     0.2200    -1.1860 h1         1 C3G       0.045700
     27 H7          -4.6530    -1.7030    -1.2550 ha         1 C3G       0.143500
     28 H8          -3.2280     1.4900     1.3320 ha         1 C3G       0.143500
     29 H9          -0.9380     0.6690     1.0790 ha         1 C3G       0.146500
     30 H10          4.3380    -2.7600     0.5000 ho         1 C3G       0.435000
     31 H11          1.2030    -3.4540     0.2220 ho         1 C3G       0.508000
     32 H12          5.4220     0.3540     0.5890 ho         1 C3G       0.572000
     33 N20         -5.5240     0.4610     0.2120 no         1 C3G       0.706200
     34 H1          -2.3310    -2.5140    -1.4940 ha         1 C3G       0.146500
@<TRIPOS>BOND
     1     1     7 1   
     2     1    17 1   
     3     1    18 1   
     4     2     9 ar  
     5     2    10 ar  
     6     2    34 1   
     7     3    10 ar  
     8     3    11 ar  
     9     3    33 1   
    10     4     5 1   
    11     4     8 1   
    12     4    13 1   
    13     4    22 1   
    14     5     6 1   
    15     5    14 1   
    16     5    23 1   
    17     6    15 1   
    18     6    19 1   
    19     6    24 1   
    20     7     8 1   
    21     7    15 1   
    22     7    25 1   
    23     8    16 1   
    24     8    26 1   
    25     9    12 ar  
    26     9    19 1   
    27    10    27 1   
    28    11    12 ar  
    29    11    28 1   
    30    12    29 1   
    31    13    30 1   
    32    14    31 1   
    33    16    32 1   
    34    20    33 1   
    35    21    33 1   
@<TRIPOS>SUBSTRUCTURE
     1 C3G         1 TEMP              0 ****  ****    0 ROOT
