@<TRIPOS>MOLECULE
C3G
   34    35     1     0     0
SMALL
abcg2


@<TRIPOS>ATOM
      1 C10          2.5030     2.5150    -0.3750 c          1 C3G       0.733000
      2 C15         -2.4610    -1.5810    -0.9310 ca         1 C3G      -0.180000
      3 C17         -4.0390    -0.1250     0.1140 ca         1 C3G      -0.238200
      4 C02          3.3390    -1.1790     0.4800 c6         1 C3G       0.168300
      5 C03          2.0810    -1.7540    -0.1650 c6         1 C3G       0.101300
      6 C05          0.9280    -0.7750     0.0380 c6         1 C3G       0.357300
      7 C07          2.3250     1.0780     0.1530 c6         1 C3G      -0.021700
      8 C08          3.5960     0.2300    -0.0310 c6         1 C3G       0.175300
      9 C14         -1.4150    -0.8450    -0.3700 ca         1 C3G       0.221100
     10 C16         -3.7700    -1.2260    -0.6930 ca         1 C3G      -0.012000
     11 C18         -3.0090     0.6200     0.6690 ca         1 C3G      -0.012000
     12 C19         -1.6950     0.2670     0.4250 ca         1 C3G      -0.180000
     13 O01          4.4660    -1.9700     0.2010 oh         1 C3G      -0.638000
     14 O04          1.8200    -2.9940     0.4430 oh         1 C3G      -0.732000
     15 O06          1.2320     0.4690    -0.5030 os         1 C3G      -0.427000
     16 O09          4.6720     0.7860     0.6700 oh         1 C3G      -0.761000
     17 O11          1.5740     3.0360    -0.9930 o          1 C3G      -0.693000
     18 O12          3.6120     3.0390    -0.0900 o          1 C3G      -0.693000
     19 O13         -0.1780    -1.2840    -0.6540 os         1 C3G      -0.343100
     20 O21         -6.2890    -0.4230    -0.1170 o          1 C3G      -0.422000
     21 O22         -5.6180     1.2180     1.0680 o          1 C3G      -0.422000
     22 H2           3.1630    -1.1160     1.5670 h1         1 C3G       0.040700
     23 H3           2.2520    -1.8600    -1.2460 h1         1 C3G       0.066700
     24 H4           0.6950    -0.6930     1.1140 h2         1 C3G       0.034700
     25 H5           2.1210     1.1500     1.2360 h1         1 C3G       0.029700
     26 H6           3.8060     0.1690    -1.1130 h1         1 C3G       0.045700
     27 H7          -4.5660    -1.8090    -1.1300 ha         1 C3G       0.143500
     28 H8          -3.2130     1.4820     1.2870 ha         1 C3G       0.143500
     29 H9          -0.9110     0.8810     0.8440 ha         1 C3G       0.146500
     30 H10          4.3040    -2.8540     0.5450 ho         1 C3G       0.435000
     31 H11          1.2170    -3.4960    -0.1140 ho         1 C3G       0.508000
     32 H12          4.5700     1.7520     0.5060 ho         1 C3G       0.572000
     33 N20         -5.4110     0.2500     0.3730 no         1 C3G       0.706200
     34 H1          -2.2380    -2.4400    -1.5500 ha         1 C3G       0.146500
@<TRIPOS>BOND
     1     1     7 1   
     2     1    17 1   
     3     1    18 1   
     4     2     9 ar  
     5     2    10 ar  
     6     2    34 1   
     7     3    10 ar  
     8     3    11 ar  
     9     3    33 1   
    10     4     5 1   
    11     4     8 1   
    12     4    13 1   
    13     4    22 1   
    14     5     6 1   
    15     5    14 1   
    16     5    23 1   
    17     6    15 1   
    18     6    19 1   
    19     6    24 1   
    20     7     8 1   
    21     7    15 1   
    22     7    25 1   
    23     8    16 1   
    24     8    26 1   
    25     9    12 ar  
    26     9    19 1   
    27    10    27 1   
    28    11    12 ar  
    29    11    28 1   
    30    12    29 1   
    31    13    30 1   
    32    14    31 1   
    33    16    32 1   
    34    20    33 1   
    35    21    33 1   
@<TRIPOS>SUBSTRUCTURE
     1 C3G         1 TEMP              0 ****  ****    0 ROOT
