@<TRIPOS>MOLECULE
C3H
   42    41     1     0     0
SMALL
bcc


@<TRIPOS>ATOM
      1 O2           3.2830    -2.3550     0.3700 o          1 C3H      -0.832800
      2 C11          4.2030    -1.7150    -0.1760 c          1 C3H       0.923600
      3 O3           5.2700    -2.1570    -0.6330 o          1 C3H      -0.832800
      4 C10          4.0100    -0.1890    -0.3080 c3         1 C3H      -0.062000
      5 N1           2.7420     0.2060     0.2470 ns         1 C3H      -0.524900
      6 C9           2.2210     1.4320     0.1870 c          1 C3H       0.611100
      7 O1           2.8000     2.3960    -0.3010 o          1 C3H      -0.661100
      8 C8           0.7910     1.5370     0.7330 c3         1 C3H       0.088500
      9 N            0.4300     2.8430     1.2270 n8         1 C3H      -0.877800
     10 C7          -0.1600     1.1230    -0.3870 c3         1 C3H       0.024700
     11 S           -1.8590     1.0930     0.2440 ss         1 C3H      -0.342200
     12 C3          -2.6560    -0.2410    -0.7550 c3         1 C3H       0.055100
     13 C4          -2.7790     0.2010    -2.2120 c3         1 C3H      -0.085100
     14 C5          -4.0370    -0.4570    -0.1190 c3         1 C3H      -0.064400
     15 C6          -5.0100     0.7060    -0.2230 c3         1 C3H       0.135400
     16 O           -6.1790     0.3520     0.4890 oh         1 C3H      -0.606800
     17 C2          -1.8620    -1.5560    -0.7080 c3         1 C3H      -0.072400
     18 C1          -1.4910    -2.1040     0.6640 c3         1 C3H      -0.075400
     19 C           -0.5530    -3.3010     0.5610 c3         1 C3H      -0.099100
     20 H2           4.8370     0.3190     0.1980 h1         1 C3H       0.037200
     21 H3           4.0760     0.0890    -1.3640 h1         1 C3H       0.037200
     22 H4           2.2250    -0.5550     0.6680 hn         1 C3H       0.341500
     23 H5           0.6790     0.8190     1.5520 h1         1 C3H       0.077700
     24 H6           1.0090     3.0870     2.0210 hn         1 C3H       0.346300
     25 H7           0.6250     3.5380     0.5160 hn         1 C3H       0.346300
     26 H9          -0.0750     1.8150    -1.2280 h1         1 C3H       0.070700
     27 H10          0.1100     0.1310    -0.7490 h1         1 C3H       0.070700
     28 H11         -1.7980     0.2960    -2.6790 hc         1 C3H       0.037033
     29 H12         -3.3450    -0.5370    -2.7860 hc         1 C3H       0.037033
     30 H13         -3.2840     1.1620    -2.3090 hc         1 C3H       0.037033
     31 H14         -4.4870    -1.3300    -0.6040 hc         1 C3H       0.058700
     32 H15         -3.9130    -0.7150     0.9370 hc         1 C3H       0.058700
     33 H16         -4.5590     1.6190     0.1860 h1         1 C3H       0.025200
     34 H17         -5.2390     0.9110    -1.2750 h1         1 C3H       0.025200
     35 H18         -6.8210     1.0590     0.3790 ho         1 C3H       0.396000
     36 H19         -2.4560    -2.3040    -1.2450 hc         1 C3H       0.042200
     37 H20         -0.9500    -1.4440    -1.3050 hc         1 C3H       0.042200
     38 H21         -1.0120    -1.3200     1.2570 hc         1 C3H       0.042700
     39 H22         -2.3920    -2.3940     1.2120 hc         1 C3H       0.042700
     40 H23         -0.3380    -3.7200     1.5450 hc         1 C3H       0.042033
     41 H24         -0.9840    -4.0970    -0.0480 hc         1 C3H       0.042033
     42 H25          0.4020    -3.0170     0.1130 hc         1 C3H       0.042033
@<TRIPOS>BOND
     1     1     2 1   
     2     2     3 1   
     3     2     4 1   
     4     4     5 1   
     5     4    20 1   
     6     4    21 1   
     7     5     6 1   
     8     5    22 1   
     9     6     7 2   
    10     6     8 1   
    11     8     9 1   
    12     8    10 1   
    13     8    23 1   
    14     9    24 1   
    15     9    25 1   
    16    10    11 1   
    17    10    26 1   
    18    10    27 1   
    19    11    12 1   
    20    12    13 1   
    21    12    14 1   
    22    12    17 1   
    23    13    28 1   
    24    13    29 1   
    25    13    30 1   
    26    14    15 1   
    27    14    31 1   
    28    14    32 1   
    29    15    16 1   
    30    15    33 1   
    31    15    34 1   
    32    16    35 1   
    33    17    18 1   
    34    17    36 1   
    35    17    37 1   
    36    18    19 1   
    37    18    38 1   
    38    18    39 1   
    39    19    40 1   
    40    19    41 1   
    41    19    42 1   
@<TRIPOS>SUBSTRUCTURE
     1 C3H         1 TEMP              0 ****  ****    0 ROOT
