@<TRIPOS>MOLECULE
C3H
   42    41     1     0     0
SMALL
No Charge or Current Charge


@<TRIPOS>ATOM
      1 O2           4.9170    -0.4940     2.4750 o          1 C3H      -0.727500
      2 C11          5.2970    -0.7090     1.3320 c          1 C3H       0.713000
      3 O3           6.1460    -1.5420     1.0500 o          1 C3H      -0.727500
      4 C10          4.6290     0.0750     0.1670 c3         1 C3H      -0.062000
      5 N1           3.2490     0.5070     0.4920 ns         1 C3H      -0.457900
      6 C9           2.3750     1.0980    -0.3970 c          1 C3H       0.544100
      7 O1           2.6930     1.3240    -1.5600 o          1 C3H      -0.661100
      8 C8           0.9730     1.4860     0.1910 c3         1 C3H       0.088500
      9 N            0.6530     2.9600     0.1200 n8         1 C3H      -0.988200
     10 C7          -0.1230     0.6190    -0.4870 c3         1 C3H       0.072600
     11 S           -1.7460     0.6950     0.4270 ss         1 C3H      -0.438000
     12 C3          -2.8990    -0.2810    -0.6720 c3         1 C3H       0.103000
     13 C4          -3.1090     0.5170    -1.9870 c3         1 C3H      -0.085100
     14 C5          -4.2530    -0.4510     0.0910 c3         1 C3H      -0.064400
     15 C6          -5.0220     0.8540     0.4110 c3         1 C3H       0.158600
     16 O           -6.2180     0.5420     1.1350 oh         1 C3H      -0.669000
     17 C2          -2.2860    -1.6790    -1.0180 c3         1 C3H      -0.072400
     18 C1          -1.9120    -2.5950     0.1780 c3         1 C3H      -0.075400
     19 C           -1.2520    -3.9150    -0.2670 c3         1 C3H      -0.099100
     20 H2           5.2410     0.9590    -0.0510 h1         1 C3H       0.037200
     21 H3           4.6040    -0.5680    -0.7230 h1         1 C3H       0.037200
     22 H4           2.9260     0.3740     1.4460 hn         1 C3H       0.341500
     23 H5           0.9900     1.2040     1.2540 h1         1 C3H       0.077700
     24 H6           1.3890     3.4930     0.5980 hn         1 C3H       0.401500
     25 H7           0.7360     3.2690    -0.8560 hn         1 C3H       0.401500
     26 H9          -0.2580     0.9500    -1.5240 h1         1 C3H       0.070700
     27 H10          0.2190    -0.4240    -0.5040 h1         1 C3H       0.070700
     28 H11         -2.1990     0.5290    -2.5980 hc         1 C3H       0.037033
     29 H12         -3.9050     0.0650    -2.5920 hc         1 C3H       0.037033
     30 H13         -3.3820     1.5590    -1.7850 hc         1 C3H       0.037033
     31 H14         -4.9110    -1.1050    -0.4940 hc         1 C3H       0.058700
     32 H15         -4.0670    -0.9650     1.0400 hc         1 C3H       0.058700
     33 H16         -4.3870     1.5240     1.0050 h1         1 C3H       0.025200
     34 H17         -5.2780     1.3720    -0.5230 h1         1 C3H       0.025200
     35 H18         -6.6660     1.3960     1.3280 ho         1 C3H       0.435000
     36 H19         -3.0010    -2.2220    -1.6500 hc         1 C3H       0.042200
     37 H20         -1.3970    -1.5430    -1.6440 hc         1 C3H       0.042200
     38 H21         -1.2230    -2.0740     0.8530 hc         1 C3H       0.042700
     39 H22         -2.8080    -2.8390     0.7590 hc         1 C3H       0.042700
     40 H23         -1.0100    -4.5340     0.6040 hc         1 C3H       0.042033
     41 H24         -1.9260    -4.4860    -0.9170 hc         1 C3H       0.042033
     42 H25         -0.3240    -3.7190    -0.8170 hc         1 C3H       0.042033
@<TRIPOS>BOND
     1     1     2 1   
     2     2     3 1   
     3     2     4 1   
     4     4     5 1   
     5     4    20 1   
     6     4    21 1   
     7     5     6 1   
     8     5    22 1   
     9     6     7 2   
    10     6     8 1   
    11     8     9 1   
    12     8    10 1   
    13     8    23 1   
    14     9    24 1   
    15     9    25 1   
    16    10    11 1   
    17    10    26 1   
    18    10    27 1   
    19    11    12 1   
    20    12    13 1   
    21    12    14 1   
    22    12    17 1   
    23    13    28 1   
    24    13    29 1   
    25    13    30 1   
    26    14    15 1   
    27    14    31 1   
    28    14    32 1   
    29    15    16 1   
    30    15    33 1   
    31    15    34 1   
    32    16    35 1   
    33    17    18 1   
    34    17    36 1   
    35    17    37 1   
    36    18    19 1   
    37    18    38 1   
    38    18    39 1   
    39    19    40 1   
    40    19    41 1   
    41    19    42 1   
@<TRIPOS>SUBSTRUCTURE
     1 C3H         1 TEMP              0 ****  ****    0 ROOT
