@<TRIPOS>MOLECULE
C3I
   53    55     1     0     0
SMALL
No Charge or Current Charge


@<TRIPOS>ATOM
      1 C10         -2.1880    -6.0030    34.8410 c3         1 C3I       0.014000
      2 C12         -1.7060    -8.0470    36.2270 c3         1 C3I       0.092300
      3 C13         -0.3360    -7.5430    34.1440 c          1 C3I       0.612100
      4 C16          1.9600    -8.6330    33.6020 c5         1 C3I      -0.064900
      5 C17          2.7310    -7.2760    33.6770 c5         1 C3I      -0.079400
      6 C18          2.3590    -6.6660    35.0660 c5         1 C3I      -0.079400
      7 C19          1.6730    -7.8380    35.8150 c5         1 C3I      -0.064900
      8 C20          0.3520    -9.9290    35.0000 ca         1 C3I      -0.078300
      9 C21         -0.3190   -10.6710    34.0000 ca         1 C3I      -0.101000
     10 C22         -0.7850   -11.9730    34.2480 ca         1 C3I      -0.109500
     11 C23         -0.5970   -12.5580    35.5070 ca         1 C3I      -0.109000
     12 C24          0.0560   -11.8370    36.5180 ca         1 C3I      -0.109500
     13 C25          0.5240   -10.5350    36.2700 ca         1 C3I      -0.101000
     14 C26         -6.0490    -6.1800    32.2480 ca         1 C3I      -0.100000
     15 C27         -7.2350    -5.9620    31.5230 ca         1 C3I      -0.150000
     16 C01         -9.6860    -5.4170    30.0480 c3         1 C3I       0.148900
     17 C03         -7.7970    -4.6700    31.4520 ca         1 C3I       0.120100
     18 C04         -7.1600    -3.6070    32.1090 ca         1 C3I      -0.150000
     19 C05         -5.9750    -3.8240    32.8330 ca         1 C3I      -0.100000
     20 C06         -5.4090    -5.1110    32.9130 ca         1 C3I      -0.063000
     21 N07         -4.2060    -5.2550    33.6630 ns         1 C3I      -0.141000
     22 C08         -3.4370    -6.3630    34.0010 c          1 C3I       0.594100
     23 O09         -3.7180    -7.5180    33.6910 o          1 C3I      -0.586100
     24 N11         -1.2570    -7.1310    35.1480 n          1 C3I      -0.385800
     25 O14         -0.4170    -7.1000    33.0020 o          1 C3I      -0.604100
     26 C15          0.8200    -8.4880    34.6690 c5         1 C3I      -0.072700
     27 H1          -1.6400    -5.2200    34.3020 h1         1 C3I       0.068700
     28 H2          -2.5390    -5.5560    35.7790 h1         1 C3I       0.068700
     29 H3          -2.5640    -7.6180    36.7590 h1         1 C3I       0.045367
     30 H4          -2.0180    -9.0060    35.7950 h1         1 C3I       0.045367
     31 H5          -0.9080    -8.2170    36.9570 h1         1 C3I       0.045367
     32 H6           1.5850    -8.8430    32.5930 hc         1 C3I       0.052200
     33 H7           2.6330    -9.4610    33.8570 hc         1 C3I       0.052200
     34 H8           3.8120    -7.4330    33.5790 hc         1 C3I       0.046450
     35 H9           2.4390    -6.6010    32.8640 hc         1 C3I       0.046450
     36 H10          3.2400    -6.2950    35.6030 hc         1 C3I       0.046450
     37 H11          1.6790    -5.8130    34.9530 hc         1 C3I       0.046450
     38 H12          1.0920    -7.4840    36.6710 hc         1 C3I       0.052200
     39 H13          2.4370    -8.5230    36.2040 hc         1 C3I       0.052200
     40 H14         -0.4810   -10.2340    33.0170 ha         1 C3I       0.119000
     41 H15         -1.2960   -12.5260    33.4620 ha         1 C3I       0.113500
     42 H16         -0.9590   -13.5660    35.7020 ha         1 C3I       0.112000
     43 H17          0.1970   -12.2860    37.4980 ha         1 C3I       0.113500
     44 H18          1.0090   -10.0090    37.0870 ha         1 C3I       0.119000
     45 H19         -5.6450    -7.1870    32.2740 ha         1 C3I       0.125500
     46 H20         -7.7010    -6.8070    31.0230 ha         1 C3I       0.122000
     47 H21        -10.5730    -4.9870    29.5680 h1         1 C3I       0.040033
     48 H22         -9.0620    -5.8710    29.2670 h1         1 C3I       0.040033
     49 H23        -10.0200    -6.2050    30.7350 h1         1 C3I       0.040033
     50 H24         -7.5870    -2.6080    32.0570 ha         1 C3I       0.122000
     51 H25         -5.4970    -2.9850    33.3360 ha         1 C3I       0.125500
     52 H26         -3.8410    -4.3790    34.0140 hn         1 C3I       0.150000
     53 O02         -8.9580    -4.3970    30.7560 os         1 C3I      -0.342100
@<TRIPOS>BOND
     1     1    22 1   
     2     1    24 1   
     3     1    27 1   
     4     1    28 1   
     5     2    24 1   
     6     2    29 1   
     7     2    30 1   
     8     2    31 1   
     9     3    24 1   
    10     3    25 2   
    11     3    26 1   
    12     4     5 1   
    13     4    26 1   
    14     4    32 1   
    15     4    33 1   
    16     5     6 1   
    17     5    34 1   
    18     5    35 1   
    19     6     7 1   
    20     6    36 1   
    21     6    37 1   
    22     7    26 1   
    23     7    38 1   
    24     7    39 1   
    25     8     9 ar  
    26     8    13 ar  
    27     8    26 1   
    28     9    10 ar  
    29     9    40 1   
    30    10    11 ar  
    31    10    41 1   
    32    11    12 ar  
    33    11    42 1   
    34    12    13 ar  
    35    12    43 1   
    36    13    44 1   
    37    14    15 ar  
    38    14    20 ar  
    39    14    45 1   
    40    15    17 ar  
    41    15    46 1   
    42    16    47 1   
    43    16    48 1   
    44    16    49 1   
    45    16    53 1   
    46    17    18 ar  
    47    17    53 1   
    48    18    19 ar  
    49    18    50 1   
    50    19    20 ar  
    51    19    51 1   
    52    20    21 1   
    53    21    22 1   
    54    21    52 1   
    55    22    23 2   
@<TRIPOS>SUBSTRUCTURE
     1 C3I         1 TEMP              0 ****  ****    0 ROOT
