@<TRIPOS>MOLECULE
C3I
   53    55     1     0     0
SMALL
abcg2


@<TRIPOS>ATOM
      1 C10         -2.1830    -5.8280    35.4500 c3         1 C3I       0.014000
      2 C12         -1.3740    -7.7010    36.8150 c3         1 C3I       0.092300
      3 C13         -0.4740    -7.1810    34.5330 c          1 C3I       0.612100
      4 C16          1.3450    -8.3710    33.2690 c5         1 C3I      -0.064900
      5 C17          2.3770    -7.2340    33.3280 c5         1 C3I      -0.079400
      6 C18          2.4580    -6.8300    34.8140 c5         1 C3I      -0.079400
      7 C19          1.6980    -7.9240    35.5640 c5         1 C3I      -0.064900
      8 C20         -0.1320    -9.6430    34.8380 ca         1 C3I      -0.078300
      9 C21         -1.2220    -9.9840    34.0360 ca         1 C3I      -0.101000
     10 C22         -1.8660   -11.2030    34.1830 ca         1 C3I      -0.109500
     11 C23         -1.4280   -12.1140    35.1350 ca         1 C3I      -0.109000
     12 C24         -0.3430   -11.7890    35.9360 ca         1 C3I      -0.109500
     13 C25          0.2980   -10.5650    35.7880 ca         1 C3I      -0.101000
     14 C26         -5.3840    -6.3840    32.2820 ca         1 C3I      -0.100000
     15 C27         -6.5190    -6.3690    31.4800 ca         1 C3I      -0.150000
     16 C01         -8.8150    -6.2360    29.8610 c3         1 C3I       0.148900
     17 C03         -7.3350    -5.2440    31.4240 ca         1 C3I       0.120100
     18 C04         -6.9890    -4.1260    32.1860 ca         1 C3I      -0.150000
     19 C05         -5.8670    -4.1490    32.9900 ca         1 C3I      -0.100000
     20 C06         -5.0480    -5.2780    33.0540 ca         1 C3I      -0.063000
     21 N07         -3.9070    -5.2210    33.8720 ns         1 C3I      -0.141000
     22 C08         -3.3080    -6.2510    34.5120 c          1 C3I       0.594100
     23 O09         -3.6400    -7.4150    34.4010 o          1 C3I      -0.586100
     24 N11         -1.2130    -6.8800    35.6300 n          1 C3I      -0.385800
     25 O14         -0.6210    -6.5230    33.5120 o          1 C3I      -0.604100
     26 C15          0.5630    -8.3160    34.5990 c5         1 C3I      -0.072700
     27 H1          -1.7030    -4.9130    35.0980 h1         1 C3I       0.068700
     28 H2          -2.6260    -5.5940    36.4210 h1         1 C3I       0.068700
     29 H3          -1.5640    -7.0530    37.6700 h1         1 C3I       0.045367
     30 H4          -2.2090    -8.3950    36.7130 h1         1 C3I       0.045367
     31 H5          -0.4830    -8.2730    37.0410 h1         1 C3I       0.045367
     32 H6           0.6980    -8.3280    32.3940 hc         1 C3I       0.052200
     33 H7           1.8570    -9.3350    33.2390 hc         1 C3I       0.052200
     34 H8           3.3440    -7.5750    32.9570 hc         1 C3I       0.046450
     35 H9           2.0800    -6.3900    32.7080 hc         1 C3I       0.046450
     36 H10          3.4830    -6.7380    35.1710 hc         1 C3I       0.046450
     37 H11          1.9840    -5.8590    34.9790 hc         1 C3I       0.046450
     38 H12          1.3730    -7.6090    36.5550 hc         1 C3I       0.052200
     39 H13          2.3550    -8.7870    35.7020 hc         1 C3I       0.052200
     40 H14         -1.5790    -9.2900    33.2840 ha         1 C3I       0.119000
     41 H15         -2.7120   -11.4420    33.5510 ha         1 C3I       0.113500
     42 H16         -1.9300   -13.0660    35.2530 ha         1 C3I       0.112000
     43 H17          0.0080   -12.4870    36.6850 ha         1 C3I       0.113500
     44 H18          1.1330   -10.3350    36.4370 ha         1 C3I       0.119000
     45 H19         -4.7670    -7.2680    32.2840 ha         1 C3I       0.125500
     46 H20         -6.7420    -7.2540    30.8980 ha         1 C3I       0.122000
     47 H21         -9.7210    -5.9450    29.3360 h1         1 C3I       0.040033
     48 H22         -8.0420    -6.4710    29.1240 h1         1 C3I       0.040033
     49 H23         -9.0240    -7.1350    30.4480 h1         1 C3I       0.040033
     50 H24         -7.6100    -3.2400    32.1500 ha         1 C3I       0.122000
     51 H25         -5.6220    -3.2730    33.5790 ha         1 C3I       0.125500
     52 H26         -3.5660    -4.2940    34.0800 hn         1 C3I       0.150000
     53 O02         -8.4520    -5.1420    30.6770 os         1 C3I      -0.342100
@<TRIPOS>BOND
     1     1    22 1   
     2     1    24 1   
     3     1    27 1   
     4     1    28 1   
     5     2    24 1   
     6     2    29 1   
     7     2    30 1   
     8     2    31 1   
     9     3    24 1   
    10     3    25 2   
    11     3    26 1   
    12     4     5 1   
    13     4    26 1   
    14     4    32 1   
    15     4    33 1   
    16     5     6 1   
    17     5    34 1   
    18     5    35 1   
    19     6     7 1   
    20     6    36 1   
    21     6    37 1   
    22     7    26 1   
    23     7    38 1   
    24     7    39 1   
    25     8     9 ar  
    26     8    13 ar  
    27     8    26 1   
    28     9    10 ar  
    29     9    40 1   
    30    10    11 ar  
    31    10    41 1   
    32    11    12 ar  
    33    11    42 1   
    34    12    13 ar  
    35    12    43 1   
    36    13    44 1   
    37    14    15 ar  
    38    14    20 ar  
    39    14    45 1   
    40    15    17 ar  
    41    15    46 1   
    42    16    47 1   
    43    16    48 1   
    44    16    49 1   
    45    16    53 1   
    46    17    18 ar  
    47    17    53 1   
    48    18    19 ar  
    49    18    50 1   
    50    19    20 ar  
    51    19    51 1   
    52    20    21 1   
    53    21    22 1   
    54    21    52 1   
    55    22    23 2   
@<TRIPOS>SUBSTRUCTURE
     1 C3I         1 TEMP              0 ****  ****    0 ROOT
