@<TRIPOS>MOLECULE
C3J
   55    59     1     0     0
SMALL
No Charge or Current Charge


@<TRIPOS>ATOM
      1 C14         -3.7620    -0.8930     2.9520 ca         1 C3J      -0.125000
      2 C5          -4.4990     0.6900    -0.1980 cc         1 C3J      -0.206400
      3 C6          -5.6170     1.0650     0.5530 cd         1 C3J      -0.127100
      4 C11         -2.4400    -0.7430     0.4500 ca         1 C3J      -0.049000
      5 C9          -4.3090    -0.1790     1.8790 ca         1 C3J      -0.060200
      6 C10         -3.6720    -0.1070     0.6710 ca         1 C3J      -0.052800
      7 C12         -1.8500    -1.4660     1.5130 ca         1 C3J       0.233000
      8 C13         -2.5230    -1.5410     2.7580 ca         1 C3J      -0.082000
      9 N2          -5.2050     1.8310    -2.1920 ns         1 C3J      -0.510900
     10 C3          -4.2290     1.0510    -1.6160 c          1 C3J       0.640300
     11 C1          -5.1680     2.3150    -3.5730 c3         1 C3J       0.098300
     12 C16         -0.6370    -3.6180     1.4290 c6         1 C3J       0.232800
     13 C17          0.7760    -4.2310     1.4850 c6         1 C3J      -0.088400
     14 C18          1.6270    -3.7250     0.3100 c6         1 C3J      -0.024100
     15 C19          1.6320    -2.1980     0.2780 ca         1 C3J      -0.132300
     16 C20          0.5410    -1.4680     0.7960 ca         1 C3J       0.340000
     17 C21          0.6280    -0.0620     0.7940 ca         1 C3J      -0.138000
     18 C22          1.7410     0.6260     0.2570 ca         1 C3J      -0.119300
     19 C23          2.8090    -0.1160    -0.3210 ca         1 C3J      -0.011000
     20 C24          2.7350    -1.5280    -0.2780 ca         1 C3J      -0.073000
     21 C25          3.9820     0.5070    -0.9760 cc         1 C3J      -0.158000
     22 C26          4.2170     1.7990    -1.4900 cc         1 C3J       0.248900
     23 C29          5.1760    -0.1530    -1.0890 cd         1 C3J      -0.162000
     24 C31          1.7600     2.1540     0.3730 c3         1 C3J       0.222600
     25 F32          1.1170     2.7320    -0.6670 f          1 C3J      -0.126500
     26 F33          1.1490     2.5940     1.4980 f          1 C3J      -0.126500
     27 N15         -0.6110    -2.1280     1.3330 nh         1 C3J      -0.855200
     28 N27          5.4410     1.9890    -1.9380 nd         1 C3J      -0.526800
     29 N28          6.0420     0.7660    -1.6880 na         1 C3J       0.131800
     30 N7          -5.5020     0.5220     1.8560 na         1 C3J      -0.209700
     31 O4          -3.2380     0.7010    -2.2400 o          1 C3J      -0.607100
     32 H1          -4.2740    -0.9470     3.9100 ha         1 C3J       0.117000
     33 H2          -6.4770     1.6670     0.2730 h4         1 C3J       0.210000
     34 H3          -1.9450    -0.6900    -0.5130 ha         1 C3J       0.152000
     35 H4          -2.0740    -2.0940     3.5780 ha         1 C3J       0.124000
     36 H5          -5.9950     2.0800    -1.6120 hn         1 C3J       0.308500
     37 H6          -6.0650     2.9140    -3.7770 h1         1 C3J       0.038700
     38 H7          -4.2760     2.9370    -3.7220 h1         1 C3J       0.038700
     39 H8          -5.1380     1.4620    -4.2630 h1         1 C3J       0.038700
     40 H9          -1.1670    -4.0320     0.5580 h1         1 C3J       0.042200
     41 H10         -1.1840    -3.9370     2.3290 h1         1 C3J       0.042200
     42 H11          1.2560    -3.9590     2.4350 hc         1 C3J       0.051700
     43 H12          0.7110    -5.3270     1.4650 hc         1 C3J       0.051700
     44 H13          2.6500    -4.1140     0.4020 hc         1 C3J       0.049700
     45 H14          1.2260    -4.1110    -0.6380 hc         1 C3J       0.049700
     46 H15         -0.1810     0.5120     1.2330 ha         1 C3J       0.136000
     47 H16          3.5300    -2.1290    -0.7080 ha         1 C3J       0.108000
     48 H17          3.5190     2.6200    -1.5780 h4         1 C3J       0.048100
     49 H18          5.4910    -1.1460    -0.7920 h4         1 C3J       0.154000
     50 H19          7.6150     0.7640    -3.0910 h1         1 C3J       0.055700
     51 H20          8.0880     1.1880    -1.4170 h1         1 C3J       0.055700
     52 H21          7.7160    -0.5100    -1.8400 h1         1 C3J       0.055700
     53 H22          2.7870     2.5260     0.4070 h2         1 C3J       0.069700
     54 H23         -6.1630     0.6260     2.6210 hn         1 C3J       0.353000
     55 C30          7.4530     0.5380    -2.0300 c3         1 C3J       0.073900
@<TRIPOS>BOND
     1     1     5 ar  
     2     1     8 ar  
     3     1    32 1   
     4     2     3 2   
     5     2     6 1   
     6     2    10 1   
     7     3    30 1   
     8     3    33 1   
     9     4     6 ar  
    10     4     7 ar  
    11     4    34 1   
    12     5     6 ar  
    13     5    30 1   
    14     7     8 ar  
    15     7    27 1   
    16     8    35 1   
    17     9    10 1   
    18     9    11 1   
    19     9    36 1   
    20    10    31 2   
    21    11    37 1   
    22    11    38 1   
    23    11    39 1   
    24    12    13 1   
    25    12    27 1   
    26    12    40 1   
    27    12    41 1   
    28    13    14 1   
    29    13    42 1   
    30    13    43 1   
    31    14    15 1   
    32    14    44 1   
    33    14    45 1   
    34    15    16 ar  
    35    15    20 ar  
    36    16    17 ar  
    37    16    27 1   
    38    17    18 ar  
    39    17    46 1   
    40    18    19 ar  
    41    18    24 1   
    42    19    20 ar  
    43    19    21 1   
    44    20    47 1   
    45    21    22 1   
    46    21    23 2   
    47    22    28 2   
    48    22    48 1   
    49    23    29 1   
    50    23    49 1   
    51    24    25 1   
    52    24    26 1   
    53    24    53 1   
    54    28    29 1   
    55    29    55 1   
    56    30    54 1   
    57    50    55 1   
    58    51    55 1   
    59    52    55 1   
@<TRIPOS>SUBSTRUCTURE
     1 C3J         1 TEMP              0 ****  ****    0 ROOT
