@<TRIPOS>MOLECULE
C3J
   55    59     1     0     0
SMALL
bcc


@<TRIPOS>ATOM
      1 C14         -3.3310    -0.4980     3.0540 ca         1 C3J      -0.143000
      2 C5          -4.6420     0.6600    -0.1150 cc         1 C3J      -0.206400
      3 C6          -5.5580     1.1560     0.7820 cd         1 C3J      -0.077100
      4 C11         -2.5060    -0.7740     0.3560 ca         1 C3J      -0.067000
      5 C9          -4.0560     0.0690     2.0100 ca         1 C3J      -0.060200
      6 C10         -3.6660    -0.0540     0.6600 ca         1 C3J      -0.052800
      7 C12         -1.7760    -1.3330     1.3900 ca         1 C3J       0.094600
      8 C13         -2.1860    -1.1940     2.7270 ca         1 C3J      -0.100000
      9 N2          -5.4930     1.6900    -2.1080 ns         1 C3J      -0.577900
     10 C3          -4.6550     0.7790    -1.5790 c          1 C3J       0.707300
     11 C1          -5.6160     1.8810    -3.5330 c3         1 C3J       0.098300
     12 C16         -0.8000    -3.5160     0.9310 c6         1 C3J       0.232800
     13 C17          0.5170    -4.2590     1.0160 c6         1 C3J      -0.088400
     14 C18          1.4770    -3.7110    -0.0270 c6         1 C3J      -0.024100
     15 C19          1.5880    -2.2150     0.0880 ca         1 C3J      -0.132300
     16 C20          0.5320    -1.4660     0.6450 ca         1 C3J       0.201600
     17 C21          0.6940    -0.0800     0.7510 ca         1 C3J      -0.156000
     18 C22          1.8410     0.5570     0.3000 ca         1 C3J      -0.119300
     19 C23          2.8790    -0.1710    -0.2890 ca         1 C3J      -0.011000
     20 C24          2.7180    -1.5560    -0.3580 ca         1 C3J      -0.091000
     21 C25          4.1050     0.4360    -0.8170 cc         1 C3J      -0.223300
     22 C26          4.2720     1.5560    -1.6570 cc         1 C3J       0.314200
     23 C29          5.3960    -0.0280    -0.6460 cd         1 C3J      -0.129300
     24 C31          1.9520     2.0410     0.4540 c3         1 C3J       0.465200
     25 F32          1.3750     2.6750    -0.6160 f          1 C3J      -0.247800
     26 F33          1.2700     2.4760     1.5490 f          1 C3J      -0.247800
     27 N15         -0.6060    -2.0860     1.1110 nh         1 C3J      -0.578400
     28 N27          5.5410     1.7530    -1.9610 nd         1 C3J      -0.526800
     29 N28          6.2070     0.7870    -1.3390 na         1 C3J       0.110400
     30 N7          -5.2070     0.8080     2.0390 na         1 C3J      -0.159400
     31 O4          -3.9390     0.0730    -2.2850 o          1 C3J      -0.607100
     32 H1          -3.6470    -0.3910     4.0840 ha         1 C3J       0.135000
     33 H2          -6.4580     1.7280     0.6140 h4         1 C3J       0.160000
     34 H3          -2.1770    -0.8960    -0.6660 ha         1 C3J       0.170000
     35 H4          -1.5860    -1.6450     3.5070 ha         1 C3J       0.142000
     36 H5          -5.9860     2.3260    -1.5060 hn         1 C3J       0.308500
     37 H6          -6.3750     2.6380    -3.7120 h1         1 C3J       0.038700
     38 H7          -4.6820     2.2200    -3.9850 h1         1 C3J       0.038700
     39 H8          -5.9240     0.9640    -4.0360 h1         1 C3J       0.038700
     40 H9          -1.2780    -3.7270    -0.0350 h1         1 C3J       0.042200
     41 H10         -1.4850    -3.8640     1.7060 h1         1 C3J       0.042200
     42 H11          0.9400    -4.1520     2.0190 hc         1 C3J       0.051700
     43 H12          0.3390    -5.3230     0.8520 hc         1 C3J       0.051700
     44 H13          2.4640    -4.1650     0.0730 hc         1 C3J       0.049700
     45 H14          1.1140    -3.9780    -1.0250 hc         1 C3J       0.049700
     46 H15         -0.0900     0.5030     1.2150 ha         1 C3J       0.154000
     47 H16          3.5110    -2.1470    -0.8040 ha         1 C3J       0.126000
     48 H17          3.5120     2.2080    -2.0620 h4         1 C3J       0.048100
     49 H18          5.7770    -0.8640    -0.0810 h4         1 C3J       0.172000
     50 H19          7.9210     0.5210    -2.5020 h1         1 C3J       0.055700
     51 H20          8.1090     1.6170    -1.1200 h1         1 C3J       0.055700
     52 H21          7.9980    -0.1300    -0.8580 h1         1 C3J       0.055700
     53 H22          2.9820     2.3900     0.5380 h2         1 C3J       0.069700
     54 H23         -5.7350     1.0370     2.8660 hn         1 C3J       0.302700
     55 C30          7.6410     0.6980    -1.4650 c3         1 C3J       0.044600
@<TRIPOS>BOND
     1     1     5 ar  
     2     1     8 ar  
     3     1    32 1   
     4     2     3 2   
     5     2     6 1   
     6     2    10 1   
     7     3    30 1   
     8     3    33 1   
     9     4     6 ar  
    10     4     7 ar  
    11     4    34 1   
    12     5     6 ar  
    13     5    30 1   
    14     7     8 ar  
    15     7    27 1   
    16     8    35 1   
    17     9    10 1   
    18     9    11 1   
    19     9    36 1   
    20    10    31 2   
    21    11    37 1   
    22    11    38 1   
    23    11    39 1   
    24    12    13 1   
    25    12    27 1   
    26    12    40 1   
    27    12    41 1   
    28    13    14 1   
    29    13    42 1   
    30    13    43 1   
    31    14    15 1   
    32    14    44 1   
    33    14    45 1   
    34    15    16 ar  
    35    15    20 ar  
    36    16    17 ar  
    37    16    27 1   
    38    17    18 ar  
    39    17    46 1   
    40    18    19 ar  
    41    18    24 1   
    42    19    20 ar  
    43    19    21 1   
    44    20    47 1   
    45    21    22 1   
    46    21    23 2   
    47    22    28 2   
    48    22    48 1   
    49    23    29 1   
    50    23    49 1   
    51    24    25 1   
    52    24    26 1   
    53    24    53 1   
    54    28    29 1   
    55    29    55 1   
    56    30    54 1   
    57    50    55 1   
    58    51    55 1   
    59    52    55 1   
@<TRIPOS>SUBSTRUCTURE
     1 C3J         1 TEMP              0 ****  ****    0 ROOT
