@<TRIPOS>MOLECULE
C3K
   69    71     1     0     0
SMALL
bcc


@<TRIPOS>ATOM
      1 CAB          0.7880     5.6660    -1.6050 c3         1 C3K       0.148100
      2 N            0.5210     4.2810    -1.9340 n7         1 C3K      -0.799200
      3 CA           0.8780     3.3650    -0.8720 c3         1 C3K       0.100500
      4 CB          -0.2120     3.3350     0.2010 c3         1 C3K      -0.086100
      5 C            1.1000     1.9700    -1.4550 c          1 C3K       0.669100
      6 O            1.0040     1.7360    -2.6470 o          1 C3K      -0.583100
      7 NAW          1.4450     1.0360    -0.5430 ns         1 C3K      -0.568900
      8 CBG          1.5210    -0.3810    -0.8250 c3         1 C3K       0.048700
      9 CBA          0.1510    -0.9810    -0.4840 c          1 C3K       0.689500
     10 OAG         -0.7900    -0.6970    -1.2140 o          1 C3K      -0.626500
     11 NBH         -0.0430    -1.7460     0.6030 n          1 C3K      -0.464800
     12 CBD          2.7800    -1.0130    -0.2320 c3         1 C3K      -0.086700
     13 CAS          3.9850    -0.5530    -1.0610 c3         1 C3K       0.101000
     14 NAV          5.2230    -1.1770    -0.6680 ns         1 C3K      -0.582900
     15 CAX          6.2060    -0.5700     0.0260 c          1 C3K       0.666100
     16 OAD          6.1460     0.5950     0.3910 o          1 C3K      -0.599100
     17 CAH          7.4040    -1.4560     0.3100 c3         1 C3K      -0.159400
     18 CAA          8.5150    -0.7530     1.0680 c3         1 C3K      -0.075100
     19 CAN          2.9950    -0.7300     1.2550 c3         1 C3K      -0.074400
     20 CAO          1.7690    -0.9770     2.1370 c3         1 C3K      -0.094400
     21 CBE          0.9170    -2.1410     1.6410 c5         1 C3K       0.153900
     22 CAP          0.0110    -2.7240     2.6790 c2         1 C3K      -0.170200
     23 CAQ         -1.2600    -2.6860     2.3130 c2         1 C3K      -0.168200
     24 CBF         -1.4200    -2.0240     0.9800 c5         1 C3K       0.055900
     25 CAZ         -2.2040    -0.7150     1.1500 c          1 C3K       0.668100
     26 OAF         -1.7060     0.2500     1.7040 o          1 C3K      -0.609100
     27 NAU         -3.4740    -0.7580     0.7310 ns         1 C3K      -0.556900
     28 CAR         -4.3570     0.3880     0.8290 c3         1 C3K       0.149300
     29 CBB         -5.7450     0.0110     0.3890 ca         1 C3K      -0.115300
     30 CAL         -6.5290    -0.8310     1.1760 ca         1 C3K      -0.112500
     31 CAJ         -7.8010    -1.1980     0.7630 ca         1 C3K      -0.132000
     32 CAI         -8.3070    -0.7250    -0.4420 ca         1 C3K      -0.120000
     33 CAK         -7.5330     0.1140    -1.2310 ca         1 C3K      -0.132000
     34 CAM         -6.2570     0.4760    -0.8170 ca         1 C3K      -0.112500
     35 H1           0.1270     6.0120    -0.8090 h1         1 C3K       0.028367
     36 H2           1.8200     5.8540    -1.2760 h1         1 C3K       0.028367
     37 H3           0.5940     6.2900    -2.4770 h1         1 C3K       0.028367
     38 H4           1.0310     4.0360    -2.7720 hn         1 C3K       0.379800
     39 H6           1.8280     3.6570    -0.3870 h1         1 C3K       0.031700
     40 H7          -0.4430     4.3470     0.5320 hc         1 C3K       0.046700
     41 H8          -1.1270     2.8800    -0.1790 hc         1 C3K       0.046700
     42 H9           0.0940     2.7800     1.0870 hc         1 C3K       0.046700
     43 H10          1.4620     1.3160     0.4250 hn         1 C3K       0.319500
     44 H11          1.5890    -0.4820    -1.9100 h1         1 C3K       0.103700
     45 H12          2.6800    -2.0940    -0.3790 hc         1 C3K       0.051700
     46 H13          3.8050    -0.7770    -2.1150 h1         1 C3K       0.067200
     47 H14          4.1030     0.5280    -0.9780 h1         1 C3K       0.067200
     48 H15          5.3530    -2.1430    -0.9240 hn         1 C3K       0.306500
     49 H16          7.0600    -2.3330     0.8670 hc         1 C3K       0.053200
     50 H17          7.7790    -1.8440    -0.6410 hc         1 C3K       0.053200
     51 H18          8.8820     0.1170     0.5250 hc         1 C3K       0.043033
     52 H19          8.1850    -0.4200     2.0510 hc         1 C3K       0.043033
     53 H20          9.3550    -1.4320     1.2130 hc         1 C3K       0.043033
     54 H21          3.8050    -1.3750     1.5990 hc         1 C3K       0.053700
     55 H22          3.3520     0.2930     1.3960 hc         1 C3K       0.053700
     56 H23          2.1070    -1.1880     3.1540 hc         1 C3K       0.063200
     57 H24          1.1220    -0.0990     2.2120 hc         1 C3K       0.063200
     58 H25          1.5760    -2.9330     1.2640 h1         1 C3K       0.062700
     59 H26          0.4020    -3.1390     3.5970 ha         1 C3K       0.150000
     60 H27         -2.1040    -3.0580     2.8770 ha         1 C3K       0.153000
     61 H28         -1.9170    -2.6770     0.2540 h1         1 C3K       0.083700
     62 H29         -3.7750    -1.5390     0.1680 hn         1 C3K       0.321500
     63 H30         -4.3700     0.7410     1.8630 h1         1 C3K       0.059700
     64 H31         -3.9800     1.2130     0.2170 h1         1 C3K       0.059700
     65 H32         -6.1430    -1.1990     2.1190 ha         1 C3K       0.135500
     66 H33         -8.4010    -1.8520     1.3830 ha         1 C3K       0.132500
     67 H34         -9.3010    -1.0090    -0.7620 ha         1 C3K       0.131000
     68 H35         -7.9200     0.4870    -2.1710 ha         1 C3K       0.132500
     69 H36         -5.6550     1.1290    -1.4380 ha         1 C3K       0.135500
@<TRIPOS>BOND
     1     1     2 1   
     2     1    35 1   
     3     1    36 1   
     4     1    37 1   
     5     2     3 1   
     6     2    38 1   
     7     3     4 1   
     8     3     5 1   
     9     3    39 1   
    10     4    40 1   
    11     4    41 1   
    12     4    42 1   
    13     5     6 2   
    14     5     7 1   
    15     7     8 1   
    16     7    43 1   
    17     8     9 1   
    18     8    12 1   
    19     8    44 1   
    20     9    10 2   
    21     9    11 1   
    22    11    21 1   
    23    11    24 1   
    24    12    13 1   
    25    12    19 1   
    26    12    45 1   
    27    13    14 1   
    28    13    46 1   
    29    13    47 1   
    30    14    15 1   
    31    14    48 1   
    32    15    16 2   
    33    15    17 1   
    34    17    18 1   
    35    17    49 1   
    36    17    50 1   
    37    18    51 1   
    38    18    52 1   
    39    18    53 1   
    40    19    20 1   
    41    19    54 1   
    42    19    55 1   
    43    20    21 1   
    44    20    56 1   
    45    20    57 1   
    46    21    22 1   
    47    21    58 1   
    48    22    23 2   
    49    22    59 1   
    50    23    24 1   
    51    23    60 1   
    52    24    25 1   
    53    24    61 1   
    54    25    26 2   
    55    25    27 1   
    56    27    28 1   
    57    27    62 1   
    58    28    29 1   
    59    28    63 1   
    60    28    64 1   
    61    29    30 ar  
    62    29    34 ar  
    63    30    31 ar  
    64    30    65 1   
    65    31    32 ar  
    66    31    66 1   
    67    32    33 ar  
    68    32    67 1   
    69    33    34 ar  
    70    33    68 1   
    71    34    69 1   
@<TRIPOS>SUBSTRUCTURE
     1 C3K         1 TEMP              0 ****  ****    0 ROOT
