@<TRIPOS>MOLECULE
C3K
   69    71     1     0     0
SMALL
No Charge or Current Charge


@<TRIPOS>ATOM
      1 CAB          1.1880     6.2730    -0.7350 c3         1 C3K       0.148100
      2 N            1.1850     4.8760    -1.2200 n7         1 C3K      -0.854400
      3 CA           1.6930     3.8340    -0.2670 c3         1 C3K       0.100500
      4 CB           0.6900     3.6490     0.9060 c3         1 C3K      -0.086100
      5 C            2.0660     2.4870    -1.0010 c          1 C3K       0.602100
      6 O            2.8590     2.4620    -1.9350 o          1 C3K      -0.583100
      7 NAW          1.4460     1.3350    -0.5580 ns         1 C3K      -0.501900
      8 CBG          1.6890    -0.0280    -1.0830 c3         1 C3K       0.048700
      9 CBA          0.3580    -0.8360    -1.0210 c          1 C3K       0.547000
     10 OAG         -0.2680    -1.0980    -2.0410 o          1 C3K      -0.551000
     11 NBH         -0.1930    -1.0980     0.2480 n          1 C3K      -0.397800
     12 CBD          2.8810    -0.7350    -0.3640 c3         1 C3K      -0.086700
     13 CAS          4.2320    -0.3750    -1.0380 c3         1 C3K       0.101000
     14 NAV          5.3420    -1.2160    -0.5740 ns         1 C3K      -0.515900
     15 CAX          6.2850    -0.8410     0.3580 c          1 C3K       0.599100
     16 OAD          6.2840     0.2600     0.8890 o          1 C3K      -0.599100
     17 CAH          7.3140    -1.9210     0.7060 c3         1 C3K      -0.159400
     18 CAA          8.6980    -1.6070     0.0980 c3         1 C3K      -0.075100
     19 CAN          2.9310    -0.5180     1.1840 c3         1 C3K      -0.074400
     20 CAO          1.5980    -0.6960     1.9580 c3         1 C3K      -0.094400
     21 CBE          0.6290    -1.7100     1.3240 c5         1 C3K       0.153900
     22 CAP         -0.4360    -2.1720     2.2900 c2         1 C3K      -0.220200
     23 CAQ         -1.6640    -2.0350     1.7920 c2         1 C3K      -0.218200
     24 CBF         -1.6410    -1.4460     0.3960 c5         1 C3K       0.055900
     25 CAZ         -2.5960    -0.2160     0.2510 c          1 C3K       0.601100
     26 OAF         -2.2870     0.9680     0.1780 o          1 C3K      -0.609100
     27 NAU         -3.9030    -0.6520     0.2380 ns         1 C3K      -0.489900
     28 CAR         -5.0590     0.2310     0.1310 c3         1 C3K       0.149300
     29 CBB         -6.3550    -0.5610     0.1840 ca         1 C3K      -0.115300
     30 CAL         -6.9660    -0.8410     1.4220 ca         1 C3K      -0.094500
     31 CAJ         -8.1620    -1.5790     1.4710 ca         1 C3K      -0.114000
     32 CAI         -8.7520    -2.0420     0.2830 ca         1 C3K      -0.102000
     33 CAK         -8.1450    -1.7680    -0.9540 ca         1 C3K      -0.114000
     34 CAM         -6.9490    -1.0310    -1.0040 ca         1 C3K      -0.094500
     35 H1           0.5120     6.4040     0.1190 h1         1 C3K       0.028367
     36 H2           2.1970     6.5790    -0.4270 h1         1 C3K       0.028367
     37 H3           0.8560     6.9540    -1.5300 h1         1 C3K       0.028367
     38 H4           1.7880     4.8420    -2.0560 hn         1 C3K       0.435000
     39 H6           2.6380     4.1810     0.1740 h1         1 C3K       0.031700
     40 H7           0.5430     4.5860     1.4540 hc         1 C3K       0.046700
     41 H8          -0.2880     3.3120     0.5390 hc         1 C3K       0.046700
     42 H9           1.0660     2.9140     1.6270 hc         1 C3K       0.046700
     43 H10          0.7590     1.4440     0.1790 hn         1 C3K       0.319500
     44 H11          1.9190     0.0470    -2.1540 h1         1 C3K       0.103700
     45 H12          2.7510    -1.8100    -0.5430 hc         1 C3K       0.051700
     46 H13          4.1440    -0.5040    -2.1250 h1         1 C3K       0.067200
     47 H14          4.4690     0.6810    -0.8520 h1         1 C3K       0.067200
     48 H15          5.4280    -2.1520    -0.9540 hn         1 C3K       0.306500
     49 H16          7.4210    -1.9690     1.7960 hc         1 C3K       0.053200
     50 H17          6.9850    -2.8950     0.3250 hc         1 C3K       0.053200
     51 H18          8.6360    -1.5480    -0.9960 hc         1 C3K       0.043033
     52 H19          9.0810    -0.6510     0.4740 hc         1 C3K       0.043033
     53 H20          9.4190    -2.3920     0.3590 hc         1 C3K       0.043033
     54 H21          3.6550    -1.2280     1.6030 hc         1 C3K       0.053700
     55 H22          3.3290     0.4810     1.4040 hc         1 C3K       0.053700
     56 H23          1.8460    -1.0130     2.9780 hc         1 C3K       0.063200
     57 H24          1.0980     0.2730     2.0650 hc         1 C3K       0.063200
     58 H25          1.1930    -2.5770     0.9540 h1         1 C3K       0.062700
     59 H26         -0.2280    -2.5790     3.2810 ha         1 C3K       0.200000
     60 H27         -2.5710    -2.3150     2.3330 ha         1 C3K       0.203000
     61 H28         -1.9400    -2.1950    -0.3500 h1         1 C3K       0.083700
     62 H29         -4.0640    -1.6490     0.3100 hn         1 C3K       0.321500
     63 H30         -5.0320     0.9580     0.9550 h1         1 C3K       0.059700
     64 H31         -4.9980     0.7880    -0.8140 h1         1 C3K       0.059700
     65 H32         -6.5140    -0.4870     2.3470 ha         1 C3K       0.117500
     66 H33         -8.6300    -1.7910     2.4300 ha         1 C3K       0.114500
     67 H34         -9.6770    -2.6140     0.3220 ha         1 C3K       0.113000
     68 H35         -8.6000    -2.1280    -1.8740 ha         1 C3K       0.114500
     69 H36         -6.4850    -0.8250    -1.9660 ha         1 C3K       0.117500
@<TRIPOS>BOND
     1     1     2 1   
     2     1    35 1   
     3     1    36 1   
     4     1    37 1   
     5     2     3 1   
     6     2    38 1   
     7     3     4 1   
     8     3     5 1   
     9     3    39 1   
    10     4    40 1   
    11     4    41 1   
    12     4    42 1   
    13     5     6 2   
    14     5     7 1   
    15     7     8 1   
    16     7    43 1   
    17     8     9 1   
    18     8    12 1   
    19     8    44 1   
    20     9    10 2   
    21     9    11 1   
    22    11    21 1   
    23    11    24 1   
    24    12    13 1   
    25    12    19 1   
    26    12    45 1   
    27    13    14 1   
    28    13    46 1   
    29    13    47 1   
    30    14    15 1   
    31    14    48 1   
    32    15    16 2   
    33    15    17 1   
    34    17    18 1   
    35    17    49 1   
    36    17    50 1   
    37    18    51 1   
    38    18    52 1   
    39    18    53 1   
    40    19    20 1   
    41    19    54 1   
    42    19    55 1   
    43    20    21 1   
    44    20    56 1   
    45    20    57 1   
    46    21    22 1   
    47    21    58 1   
    48    22    23 2   
    49    22    59 1   
    50    23    24 1   
    51    23    60 1   
    52    24    25 1   
    53    24    61 1   
    54    25    26 2   
    55    25    27 1   
    56    27    28 1   
    57    27    62 1   
    58    28    29 1   
    59    28    63 1   
    60    28    64 1   
    61    29    30 ar  
    62    29    34 ar  
    63    30    31 ar  
    64    30    65 1   
    65    31    32 ar  
    66    31    66 1   
    67    32    33 ar  
    68    32    67 1   
    69    33    34 ar  
    70    33    68 1   
    71    34    69 1   
@<TRIPOS>SUBSTRUCTURE
     1 C3K         1 TEMP              0 ****  ****    0 ROOT
