@<TRIPOS>MOLECULE
C3L
   49    49     1     0     0
SMALL
bcc


@<TRIPOS>ATOM
      1 CAA          9.8690     0.9510     0.4550 c3         1 C3L      -0.125100
      2 CAF         -1.3910    -0.1290    -0.9620 c2         1 C3L      -0.222200
      3 CAG         -2.4300     0.4590    -0.3660 ce         1 C3L      -0.053200
      4 CAH         -6.2220    -1.3570     0.3150 ca         1 C3L      -0.272000
      5 CAI         -3.8420    -1.5540     0.0180 ca         1 C3L      -0.256000
      6 CAJ         -0.0690     0.5240    -1.1980 c3         1 C3L      -0.030200
      7 CAM          7.4050     0.6400     0.0330 c3         1 C3L      -0.109400
      8 CAN          2.4320     0.4170    -0.7990 c3         1 C3L      -0.107400
      9 CAO          4.9170     0.4590    -0.3850 c3         1 C3L      -0.110400
     10 CAR         -5.0770    -2.1440     0.2310 ca         1 C3L       0.127100
     11 CAS         -6.1120     0.0190     0.1760 ca         1 C3L       0.172100
     12 CAT         -3.7390    -0.1640    -0.1170 ca         1 C3L       0.002200
     13 CAU         -4.8780     0.6390    -0.0350 ca         1 C3L      -0.144600
     14 CAV          8.6400     0.1020     0.7480 c3         1 C3L       0.143100
     15 CAW          3.6030    -0.2590    -0.0900 c3         1 C3L       0.142100
     16 OAB         -4.3780     2.8070     0.7530 o          1 C3L      -0.817300
     17 OAE          3.6740    -1.6400    -0.3930 oh         1 C3L      -0.593800
     18 OAP         -5.2280     2.5920    -1.2980 o          1 C3L      -0.817300
     19 OAV          8.8740    -1.2640     0.4520 oh         1 C3L      -0.593800
     20 H1           9.7110     1.9840     0.7680 hc         1 C3L       0.038367
     21 H2          10.7460     0.5720     0.9810 hc         1 C3L       0.038367
     22 H3          10.0940     0.9610    -0.6150 hc         1 C3L       0.038367
     23 H4          -1.4790    -1.1550    -1.3120 ha         1 C3L       0.103000
     24 H5          -2.3250     1.4920    -0.0500 ha         1 C3L       0.158000
     25 H6          -7.1850    -1.8240     0.4970 ha         1 C3L       0.122000
     26 H7          -2.9510    -2.1710    -0.0210 ha         1 C3L       0.113000
     27 H8           0.1450     0.5190    -2.2730 hc         1 C3L       0.038200
     28 H9          -0.1090     1.5740    -0.8930 hc         1 C3L       0.038200
     29 H10          0.9010    -0.1390     0.6090 hc         1 C3L       0.044200
     30 H11          1.0660    -1.2480    -0.7360 hc         1 C3L       0.044200
     31 H12          6.2480    -1.1760     0.0530 hc         1 C3L       0.051700
     32 H13          7.5870     0.6410    -1.0500 hc         1 C3L       0.038200
     33 H14          2.5960     0.3820    -1.8840 hc         1 C3L       0.038200
     34 H15          2.4320     1.4780    -0.5310 hc         1 C3L       0.038200
     35 H16          4.8010     1.5120    -0.1070 hc         1 C3L       0.038200
     36 H17          5.0920     0.4530    -1.4690 hc         1 C3L       0.038200
     37 H18          8.4510     0.1280     1.8260 h1         1 C3L       0.070700
     38 H19          3.4230    -0.2150     0.9910 h1         1 C3L       0.072700
     39 H20         -4.3790    -3.9200     0.2920 ho         1 C3L       0.409000
     40 H21         -7.9900     0.2950     0.4050 ho         1 C3L       0.395000
     41 H22          3.8460    -1.7280    -1.3380 ho         1 C3L       0.393000
     42 H24          9.0060    -1.3430    -0.4990 ho         1 C3L       0.395000
     43 H25          7.2760     1.6900     0.3150 hc         1 C3L       0.038200
     44 H26          5.9430    -0.1170     1.4150 hc         1 C3L       0.051700
     45 OAC         -5.2310    -3.4790     0.3770 oh         1 C3L      -0.518100
     46 CAQ         -4.8240     2.1520    -0.2080 c          1 C3L       0.939200
     47 CAL          6.1240    -0.1280     0.3340 c3         1 C3L      -0.068400
     48 CAK          1.0730    -0.1880    -0.4710 c3         1 C3L      -0.070400
     49 OAD         -7.1970     0.8220     0.2570 oh         1 C3L      -0.463100
@<TRIPOS>BOND
     1     1    14 1   
     2     1    20 1   
     3     1    21 1   
     4     1    22 1   
     5     2     3 2   
     6     2     6 1   
     7     2    23 1   
     8     3    12 1   
     9     3    24 1   
    10     4    10 ar  
    11     4    11 ar  
    12     4    25 1   
    13     5    10 ar  
    14     5    12 ar  
    15     5    26 1   
    16     6    27 1   
    17     6    28 1   
    18     6    48 1   
    19     7    14 1   
    20     7    32 1   
    21     7    43 1   
    22     7    47 1   
    23     8    15 1   
    24     8    33 1   
    25     8    34 1   
    26     8    48 1   
    27     9    15 1   
    28     9    35 1   
    29     9    36 1   
    30     9    47 1   
    31    10    45 1   
    32    11    13 ar  
    33    11    49 1   
    34    12    13 ar  
    35    13    46 1   
    36    14    19 1   
    37    14    37 1   
    38    15    17 1   
    39    15    38 1   
    40    16    46 1   
    41    17    41 1   
    42    18    46 1   
    43    19    42 1   
    44    29    48 1   
    45    30    48 1   
    46    31    47 1   
    47    39    45 1   
    48    40    49 1   
    49    44    47 1   
@<TRIPOS>SUBSTRUCTURE
     1 C3L         1 TEMP              0 ****  ****    0 ROOT
