@<TRIPOS>MOLECULE
C3L
   49    49     1     0     0
SMALL
No Charge or Current Charge


@<TRIPOS>ATOM
      1 CAA          9.7720     1.1860     0.7940 c3         1 C3L      -0.125100
      2 CAF         -1.4810    -0.2690    -1.4500 c2         1 C3L      -0.272200
      3 CAG         -2.2830     0.2800    -0.5090 ce         1 C3L      -0.103200
      4 CAH         -6.2040    -1.1880     0.5540 ca         1 C3L      -0.254000
      5 CAI         -3.9640    -1.5840    -0.2890 ca         1 C3L      -0.238000
      6 CAJ         -0.1020     0.2300    -1.8240 c3         1 C3L      -0.030200
      7 CAM          7.3630     0.6760     0.0740 c3         1 C3L      -0.109400
      8 CAN          2.4100     0.1930    -1.2390 c3         1 C3L      -0.107400
      9 CAO          4.8960     0.3390    -0.6050 c3         1 C3L      -0.110400
     10 CAR         -5.2330    -2.0610     0.0560 ca         1 C3L       0.127100
     11 CAS         -5.9050     0.1720     0.7110 ca         1 C3L       0.172100
     12 CAT         -3.6460    -0.2160    -0.1420 ca         1 C3L       0.002200
     13 CAU         -4.6310     0.6670     0.3680 ca         1 C3L      -0.144600
     14 CAV          8.4910     0.3860     1.0950 c3         1 C3L       0.166300
     15 CAW          3.5200    -0.2890    -0.2720 c3         1 C3L       0.165300
     16 OAB         -3.8190     2.4950     1.5780 o          1 C3L      -0.712000
     17 OAE          3.6220    -1.7160    -0.3430 oh         1 C3L      -0.656000
     18 OAP         -4.5750     2.8730    -0.4080 o          1 C3L      -0.712000
     19 OAV          8.8120    -1.0080     1.0790 oh         1 C3L      -0.656000
     20 H1           9.5690     2.2630     0.8290 hc         1 C3L       0.038367
     21 H2          10.5490     0.9650     1.5360 hc         1 C3L       0.038367
     22 H3          10.1650     0.9440    -0.2010 hc         1 C3L       0.038367
     23 H4          -1.8060    -1.1380    -2.0230 ha         1 C3L       0.153000
     24 H5          -1.9420     1.1600     0.0390 ha         1 C3L       0.208000
     25 H6          -7.1860    -1.5710     0.8190 ha         1 C3L       0.104000
     26 H7          -3.2160    -2.2780    -0.6600 ha         1 C3L       0.095000
     27 H8           0.1360    -0.0740    -2.8510 hc         1 C3L       0.038200
     28 H9          -0.0840     1.3270    -1.8140 hc         1 C3L       0.038200
     29 H10          0.7540     0.0020     0.1530 hc         1 C3L       0.044200
     30 H11          0.9680    -1.4020    -0.8920 hc         1 C3L       0.044200
     31 H12          6.1590    -1.1000     0.4260 hc         1 C3L       0.051700
     32 H13          7.6890     0.3730    -0.9290 hc         1 C3L       0.038200
     33 H14          2.6530    -0.1200    -2.2620 hc         1 C3L       0.038200
     34 H15          2.4020     1.2900    -1.2420 hc         1 C3L       0.038200
     35 H16          4.7850     1.4300    -0.6320 hc         1 C3L       0.038200
     36 H17          5.2060     0.0310    -1.6120 hc         1 C3L       0.038200
     37 H18          8.1360     0.6780     2.0950 h1         1 C3L       0.070700
     38 H19          3.2420     0.0190     0.7470 h1         1 C3L       0.072700
     39 H20         -4.7310    -3.8300    -0.4450 ho         1 C3L       0.448000
     40 H21         -7.6710     0.4680     1.3740 ho         1 C3L       0.434000
     41 H22          3.8620    -1.9360    -1.2680 ho         1 C3L       0.432000
     42 H24          9.0910    -1.2230     0.1630 ho         1 C3L       0.434000
     43 H25          7.1990     1.7600     0.0350 hc         1 C3L       0.038200
     44 H26          5.6980     0.2850     1.4120 hc         1 C3L       0.051700
     45 OAC         -5.5260    -3.3800    -0.0880 oh         1 C3L      -0.557100
     46 CAQ         -4.3430     2.1290     0.5350 c          1 C3L       0.728600
     47 CAL          6.0160    -0.0130     0.4050 c3         1 C3L      -0.068400
     48 CAK          0.9900    -0.3050    -0.8740 c3         1 C3L      -0.070400
     49 OAD         -6.8690     1.0030     1.2010 oh         1 C3L      -0.502100
@<TRIPOS>BOND
     1     1    14 1   
     2     1    20 1   
     3     1    21 1   
     4     1    22 1   
     5     2     3 2   
     6     2     6 1   
     7     2    23 1   
     8     3    12 1   
     9     3    24 1   
    10     4    10 ar  
    11     4    11 ar  
    12     4    25 1   
    13     5    10 ar  
    14     5    12 ar  
    15     5    26 1   
    16     6    27 1   
    17     6    28 1   
    18     6    48 1   
    19     7    14 1   
    20     7    32 1   
    21     7    43 1   
    22     7    47 1   
    23     8    15 1   
    24     8    33 1   
    25     8    34 1   
    26     8    48 1   
    27     9    15 1   
    28     9    35 1   
    29     9    36 1   
    30     9    47 1   
    31    10    45 1   
    32    11    13 ar  
    33    11    49 1   
    34    12    13 ar  
    35    13    46 1   
    36    14    19 1   
    37    14    37 1   
    38    15    17 1   
    39    15    38 1   
    40    16    46 1   
    41    17    41 1   
    42    18    46 1   
    43    19    42 1   
    44    29    48 1   
    45    30    48 1   
    46    31    47 1   
    47    39    45 1   
    48    40    49 1   
    49    44    47 1   
@<TRIPOS>SUBSTRUCTURE
     1 C3L         1 TEMP              0 ****  ****    0 ROOT
