@<TRIPOS>MOLECULE
C3M
   48    50     1     0     0
SMALL
abcg2


@<TRIPOS>ATOM
      1 N1          -2.8510     0.4990     1.4420 n8         1 C3M      -0.998200
      2 C2          -2.7000     0.5230    -0.0020 c3         1 C3M       0.131500
      3 C3          -4.0130     0.7800    -0.7680 c3         1 C3M      -0.068100
      4 C4          -5.0480    -0.2620    -0.4570 ca         1 C3M      -0.090300
      5 C5          -6.0240    -0.0460     0.5150 ca         1 C3M      -0.111000
      6 C6          -6.9530    -1.0320     0.8250 ca         1 C3M      -0.106000
      7 C7          -6.9170    -2.2550     0.1690 ca         1 C3M      -0.108000
      8 C8          -5.9480    -2.4840    -0.8000 ca         1 C3M      -0.106000
      9 C9          -5.0240    -1.4950    -1.1070 ca         1 C3M      -0.111000
     10 C10         -1.6400     1.5690    -0.3700 c3         1 C3M       0.164300
     11 O11         -1.4510     1.6740    -1.7650 oh         1 C3M      -0.656000
     12 C12         -0.3130     1.2870     0.3300 c3         1 C3M       0.173800
     13 N13          0.6370     2.3310    -0.0350 n7         1 C3M      -0.867300
     14 S14          2.1270     2.3360     0.6520 sy         1 C3M       1.154600
     15 O15          1.9380     2.2560     2.0910 o          1 C3M      -0.533500
     16 O16          2.8370     3.4630     0.0700 o          1 C3M      -0.533500
     17 C17          2.9310     0.8490     0.1220 ca         1 C3M      -0.311500
     18 C18          3.5030     0.8140    -1.1690 ca         1 C3M      -0.044000
     19 C19          4.0930    -0.3360    -1.6060 ca         1 C3M      -0.110000
     20 C20          4.1370    -1.4900    -0.7870 ca         1 C3M       0.002000
     21 C21          4.7480    -2.6890    -1.2190 ca         1 C3M      -0.112000
     22 C22          4.7730    -3.7880    -0.4040 ca         1 C3M      -0.087000
     23 C23          4.1900    -3.7420     0.8800 ca         1 C3M      -0.113000
     24 C24          3.5940    -2.5940     1.3260 ca         1 C3M      -0.083000
     25 C25          3.5540    -1.4430     0.5050 ca         1 C3M      -0.068000
     26 C26          2.9500    -0.2440     0.9450 ca         1 C3M       0.024000
     27 H1N1        -3.2830     1.3610     1.7550 hn         1 C3M       0.404500
     28 H1N2        -3.4900    -0.2410     1.7060 hn         1 C3M       0.404500
     29 H2          -2.3200    -0.4630    -0.3020 h1         1 C3M       0.057700
     30 H3C1        -4.3870     1.7730    -0.5020 hc         1 C3M       0.061200
     31 H3C2        -3.8180     0.7910    -1.8420 hc         1 C3M       0.061200
     32 H5          -6.0610     0.9070     1.0300 ha         1 C3M       0.110000
     33 H6          -7.7060    -0.8440     1.5790 ha         1 C3M       0.114500
     34 H7          -7.6400    -3.0230     0.4090 ha         1 C3M       0.115000
     35 H8          -5.9140    -3.4330    -1.3200 ha         1 C3M       0.114500
     36 H9          -4.2720    -1.6810    -1.8670 ha         1 C3M       0.110000
     37 H10         -1.9960     2.5550    -0.0500 h1         1 C3M       0.091700
     38 H11         -1.2020     0.8070    -2.1080 ho         1 C3M       0.437000
     39 H121        -0.4620     1.2940     1.4060 h1         1 C3M       0.065700
     40 H122         0.0440     0.2870     0.0460 h1         1 C3M       0.065700
     41 H13          0.6740     2.5190    -1.0320 hn         1 C3M       0.490000
     42 H18          3.4860     1.6890    -1.8040 ha         1 C3M       0.131000
     43 H19          4.5430    -0.3710    -2.5900 ha         1 C3M       0.118000
     44 H21          5.1970    -2.7270    -2.2040 ha         1 C3M       0.118000
     45 H22          5.2440    -4.7020    -0.7420 ha         1 C3M       0.117000
     46 H23          4.2150    -4.6200     1.5110 ha         1 C3M       0.118000
     47 H24          3.1450    -2.5540     2.3110 ha         1 C3M       0.120000
     48 H26          2.5140    -0.2070     1.9350 ha         1 C3M       0.140000
@<TRIPOS>BOND
     1     1     2 1   
     2     1    27 1   
     3     1    28 1   
     4     2     3 1   
     5     2    10 1   
     6     2    29 1   
     7     3     4 1   
     8     3    30 1   
     9     3    31 1   
    10     4     5 ar  
    11     4     9 ar  
    12     5     6 ar  
    13     5    32 1   
    14     6     7 ar  
    15     6    33 1   
    16     7     8 ar  
    17     7    34 1   
    18     8     9 ar  
    19     8    35 1   
    20     9    36 1   
    21    10    11 1   
    22    10    12 1   
    23    10    37 1   
    24    11    38 1   
    25    12    13 1   
    26    12    39 1   
    27    12    40 1   
    28    13    14 1   
    29    13    41 1   
    30    14    15 2   
    31    14    16 2   
    32    14    17 1   
    33    17    18 ar  
    34    17    26 ar  
    35    18    19 ar  
    36    18    42 1   
    37    19    20 ar  
    38    19    43 1   
    39    20    21 ar  
    40    20    25 ar  
    41    21    22 ar  
    42    21    44 1   
    43    22    23 ar  
    44    22    45 1   
    45    23    24 ar  
    46    23    46 1   
    47    24    25 ar  
    48    24    47 1   
    49    25    26 ar  
    50    26    48 1   
@<TRIPOS>SUBSTRUCTURE
     1 C3M         1 TEMP              0 ****  ****    0 ROOT
