@<TRIPOS>MOLECULE
C3M
   48    50     1     0     0
SMALL
No Charge or Current Charge


@<TRIPOS>ATOM
      1 N1          -3.7200     1.5010     0.8970 n8         1 C3M      -0.998200
      2 C2          -3.2600     0.2120     0.3260 c3         1 C3M       0.131500
      3 C3          -4.3010    -0.2860    -0.7140 c3         1 C3M      -0.068100
      4 C4          -5.7270    -0.3560    -0.1680 ca         1 C3M      -0.090300
      5 C5          -6.7240     0.5110    -0.6590 ca         1 C3M      -0.111000
      6 C6          -8.0350     0.4420    -0.1550 ca         1 C3M      -0.106000
      7 C7          -8.3580    -0.4950     0.8410 ca         1 C3M      -0.108000
      8 C8          -7.3700    -1.3650     1.3310 ca         1 C3M      -0.106000
      9 C9          -6.0590    -1.2970     0.8270 ca         1 C3M      -0.111000
     10 C10         -1.8020     0.3020    -0.2510 c3         1 C3M       0.164300
     11 O11         -1.3830    -0.9820    -0.7760 oh         1 C3M      -0.656000
     12 C12         -0.7620     0.7910     0.8000 c3         1 C3M       0.173800
     13 N13          0.5970     0.8390     0.2130 n7         1 C3M      -0.867300
     14 S14          1.8860     1.1250     1.2290 sy         1 C3M       1.154600
     15 O15          1.6580     0.3240     2.4340 o          1 C3M      -0.533500
     16 O16          2.0600     2.5800     1.2550 o          1 C3M      -0.533500
     17 C17          3.1950     0.3850     0.2480 ca         1 C3M      -0.311500
     18 C18          3.7650     1.1000    -0.8260 ca         1 C3M      -0.044000
     19 C19          4.7870     0.5190    -1.5960 ca         1 C3M      -0.110000
     20 C20          5.2460    -0.7780    -1.3030 ca         1 C3M       0.002000
     21 C21          6.2700    -1.3600    -2.0740 ca         1 C3M      -0.112000
     22 C22          6.7260    -2.6560    -1.7780 ca         1 C3M      -0.087000
     23 C23          6.1600    -3.3740    -0.7110 ca         1 C3M      -0.113000
     24 C24          5.1380    -2.7970     0.0630 ca         1 C3M      -0.083000
     25 C25          4.6770    -1.4980    -0.2290 ca         1 C3M      -0.068000
     26 C26          3.6530    -0.9170     0.5430 ca         1 C3M       0.024000
     27 H1N1        -3.8300     2.1850     0.1400 hn         1 C3M       0.404500
     28 H1N2        -4.6850     1.3730     1.2270 hn         1 C3M       0.404500
     29 H2          -3.2420    -0.5120     1.1520 h1         1 C3M       0.057700
     30 H3C1        -4.2610     0.3620    -1.5990 hc         1 C3M       0.061200
     31 H3C2        -4.0100    -1.2830    -1.0650 hc         1 C3M       0.061200
     32 H5          -6.4860     1.2400    -1.4300 ha         1 C3M       0.110000
     33 H6          -8.8000     1.1150    -0.5360 ha         1 C3M       0.114500
     34 H7          -9.3730    -0.5480     1.2310 ha         1 C3M       0.115000
     35 H8          -7.6190    -2.0930     2.1000 ha         1 C3M       0.114500
     36 H9          -5.3020    -1.9760     1.2110 ha         1 C3M       0.110000
     37 H10         -1.8110     1.0420    -1.0640 h1         1 C3M       0.091700
     38 H11         -1.5370    -1.6510    -0.0740 ho         1 C3M       0.437000
     39 H121        -1.0520     1.7860     1.1630 h1         1 C3M       0.065700
     40 H122        -0.8000     0.1080     1.6610 h1         1 C3M       0.065700
     41 H13          0.8290    -0.0720    -0.1810 hn         1 C3M       0.490000
     42 H18          3.4180     2.1040    -1.0680 ha         1 C3M       0.131000
     43 H19          5.2200     1.0790    -2.4220 ha         1 C3M       0.118000
     44 H21          6.7120    -0.8100    -2.9020 ha         1 C3M       0.118000
     45 H22          7.5170    -3.1040    -2.3760 ha         1 C3M       0.117000
     46 H23          6.5140    -4.3770    -0.4830 ha         1 C3M       0.118000
     47 H24          4.7060    -3.3610     0.8880 ha         1 C3M       0.120000
     48 H26          3.2200    -1.4800     1.3690 ha         1 C3M       0.140000
@<TRIPOS>BOND
     1     1     2 1   
     2     1    27 1   
     3     1    28 1   
     4     2     3 1   
     5     2    10 1   
     6     2    29 1   
     7     3     4 1   
     8     3    30 1   
     9     3    31 1   
    10     4     5 ar  
    11     4     9 ar  
    12     5     6 ar  
    13     5    32 1   
    14     6     7 ar  
    15     6    33 1   
    16     7     8 ar  
    17     7    34 1   
    18     8     9 ar  
    19     8    35 1   
    20     9    36 1   
    21    10    11 1   
    22    10    12 1   
    23    10    37 1   
    24    11    38 1   
    25    12    13 1   
    26    12    39 1   
    27    12    40 1   
    28    13    14 1   
    29    13    41 1   
    30    14    15 2   
    31    14    16 2   
    32    14    17 1   
    33    17    18 ar  
    34    17    26 ar  
    35    18    19 ar  
    36    18    42 1   
    37    19    20 ar  
    38    19    43 1   
    39    20    21 ar  
    40    20    25 ar  
    41    21    22 ar  
    42    21    44 1   
    43    22    23 ar  
    44    22    45 1   
    45    23    24 ar  
    46    23    46 1   
    47    24    25 ar  
    48    24    47 1   
    49    25    26 ar  
    50    26    48 1   
@<TRIPOS>SUBSTRUCTURE
     1 C3M         1 TEMP              0 ****  ****    0 ROOT
