@<TRIPOS>MOLECULE
C3Q
   89    93     1     0     0
SMALL
abcg2


@<TRIPOS>ATOM
      1 C1         -12.6560     1.3930     0.7440 c6         1 C3Q      -0.068400
      2 C2         -12.4140    -0.0940     0.4730 c6         1 C3Q      -0.058367
      3 C3         -12.6400    -0.3850    -1.0130 c6         1 C3Q      -0.068400
      4 C4         -10.9740    -0.4490     0.8440 c6         1 C3Q      -0.063067
      5 C5         -11.6810     2.2260    -0.0890 c6         1 C3Q      -0.058367
      6 C6         -11.9050     1.9350    -1.5750 c6         1 C3Q      -0.068400
      7 C7         -10.2420     1.8630     0.2860 c6         1 C3Q      -0.063067
      8 C8         -11.6650     0.4480    -1.8480 c6         1 C3Q      -0.058367
      9 C9          -9.9730     0.3750     0.0190 c6         1 C3Q      -0.045000
     10 C10        -10.2260     0.0890    -1.4690 c6         1 C3Q      -0.063067
     11 C11          8.7520     2.4590     1.8230 ca         1 C3Q      -0.173000
     12 C12          8.3140     1.2900     2.4620 ca         1 C3Q      -0.056000
     13 C13          7.9730     0.1700     1.7550 ca         1 C3Q      -0.156000
     14 C14          8.8370     2.5170     0.4520 ca         1 C3Q       0.294000
     15 C15          8.4000     1.3890    -0.3170 ca         1 C3Q      -0.067000
     16 C16          7.9950     0.1910     0.3400 ca         1 C3Q       0.060000
     17 C17          7.5970    -0.9030    -0.4840 ca         1 C3Q      -0.304500
     18 C18          7.5690    -0.8050    -1.8510 ca         1 C3Q       0.014000
     19 C19          7.9200     0.4000    -2.4770 ca         1 C3Q      -0.154000
     20 C20          8.3190     1.4680    -1.7260 ca         1 C3Q      -0.026000
     21 C21          9.2020     4.9130     0.4600 c3         1 C3Q       0.171100
     22 C22         10.6090     3.4890    -0.8630 c3         1 C3Q       0.171100
     23 C23         -6.0950     0.2550     0.3440 c          1 C3Q       0.596100
     24 N2          -5.5270    -0.8490    -0.1670 ns         1 C3Q      -0.508900
     25 C24         -4.3450    -1.4660     0.3920 c3         1 C3Q       0.104000
     26 C25         -3.0330    -0.9060    -0.1430 c3         1 C3Q      -0.097400
     27 C26         -1.8350    -1.5840     0.5100 c3         1 C3Q      -0.073400
     28 C27         -0.4920    -1.0750     0.0030 c3         1 C3Q      -0.073400
     29 C28          0.6890    -1.7570     0.6820 c3         1 C3Q      -0.074400
     30 C29          2.0400    -1.2740     0.1730 c3         1 C3Q      -0.075400
     31 C30          3.2100    -1.9620     0.8640 c3         1 C3Q      -0.079400
     32 C31          4.5460    -1.5060     0.3020 c3         1 C3Q       0.210800
     33 N3           5.6500    -2.1490     1.0110 n7         1 C3Q      -0.880300
     34 S1           7.0540    -2.4480     0.2160 sy         1 C3Q       1.152600
     35 O2           8.0100    -2.8990     1.2160 o          1 C3Q      -0.535500
     36 O3          -5.6230     0.8580     1.3010 o          1 C3Q      -0.606100
     37 H1         -13.6880     1.6590     0.4950 hc         1 C3Q       0.039533
     38 H1A        -12.5240     1.6090     1.8100 hc         1 C3Q       0.039533
     39 H2         -13.1030    -0.6940     1.0740 hc         1 C3Q       0.048700
     40 H3         -12.4960    -1.4510    -1.2150 hc         1 C3Q       0.039533
     41 H3A        -13.6720    -0.1490    -1.2920 hc         1 C3Q       0.039533
     42 H4         -10.8060    -0.2700     1.9120 hc         1 C3Q       0.039367
     43 H4A        -10.7970    -1.5180     0.6780 hc         1 C3Q       0.039367
     44 H5         -11.8470     3.2910     0.1050 hc         1 C3Q       0.048700
     45 H6         -12.9230     2.2130    -1.8660 hc         1 C3Q       0.039533
     46 H6A        -11.2270     2.5430    -2.1840 hc         1 C3Q       0.039533
     47 H7          -9.5490     2.4840    -0.2900 hc         1 C3Q       0.039367
     48 H7A        -10.0590     2.0860     1.3430 hc         1 C3Q       0.039367
     49 H8         -11.8210     0.2400    -2.9110 hc         1 C3Q       0.048700
     50 H10        -10.0320    -0.9690    -1.6800 hc         1 C3Q       0.039367
     51 H10A        -9.5330     0.6650    -2.0900 hc         1 C3Q       0.039367
     52 H11          9.0530     3.3030     2.4290 ha         1 C3Q       0.119000
     53 H12          8.2770     1.2660     3.5440 ha         1 C3Q       0.117000
     54 H13          7.7010    -0.7180     2.3030 ha         1 C3Q       0.121000
     55 H18          7.2590    -1.6430    -2.4580 ha         1 C3Q       0.144000
     56 H19          7.8570     0.4790    -3.5540 ha         1 C3Q       0.121000
     57 H20          8.5540     2.4040    -2.2130 ha         1 C3Q       0.131000
     58 H22          9.9230     5.0300     1.2800 h1         1 C3Q       0.037700
     59 H22A         9.3870     5.7160    -0.2540 h1         1 C3Q       0.037700
     60 H22B         8.1980     5.0480     0.8610 h1         1 C3Q       0.037700
     61 H23         10.6940     2.5260    -1.3600 h1         1 C3Q       0.037700
     62 H23A        10.7500     4.2660    -1.6150 h1         1 C3Q       0.037700
     63 H23B        11.4280     3.5630    -0.1350 h1         1 C3Q       0.037700
     64 HN25        -5.9500    -1.2850    -0.9700 hn         1 C3Q       0.311500
     65 H26         -4.3740    -1.3580     1.4780 h1         1 C3Q       0.050200
     66 H26A        -4.4020    -2.5360     0.1810 h1         1 C3Q       0.050200
     67 H27         -2.9920    -1.0400    -1.2280 hc         1 C3Q       0.048200
     68 H27A        -2.9940     0.1710     0.0430 hc         1 C3Q       0.048200
     69 H28         -1.8890    -1.4430     1.5950 hc         1 C3Q       0.038700
     70 H28A        -1.8960    -2.6660     0.3450 hc         1 C3Q       0.038700
     71 H29         -0.4280    -1.2280    -1.0800 hc         1 C3Q       0.039200
     72 H29A        -0.4280     0.0070     0.1600 hc         1 C3Q       0.039200
     73 H30          0.6280    -1.5940     1.7640 hc         1 C3Q       0.040200
     74 H30A         0.6140    -2.8400     0.5360 hc         1 C3Q       0.040200
     75 H31          2.1030    -1.4450    -0.9070 hc         1 C3Q       0.038700
     76 H31A         2.1180    -0.1910     0.3140 hc         1 C3Q       0.038700
     77 H32          3.1720    -1.7570     1.9380 hc         1 C3Q       0.052200
     78 H32A         3.1280    -3.0470     0.7490 hc         1 C3Q       0.052200
     79 H33          4.6050    -1.7770    -0.7530 h1         1 C3Q       0.047700
     80 H33A         4.6330    -0.4160     0.3580 h1         1 C3Q       0.047700
     81 HN34         5.7910    -1.8160     1.9580 hn         1 C3Q       0.485000
     82 C33         -8.5610    -0.0310     0.4480 c3         1 C3Q      -0.063400
     83 H39         -7.5010     1.7440    -0.2110 hc         1 C3Q       0.062200
     84 H39A        -7.4300     0.4040    -1.3490 hc         1 C3Q       0.062200
     85 H48         -8.4620     0.1650     1.5220 hc         1 C3Q       0.047200
     86 H49         -8.4600    -1.1150     0.3240 hc         1 C3Q       0.047200
     87 C32         -7.4080     0.6600    -0.2880 c3         1 C3Q      -0.159400
     88 N1           9.3050     3.6470    -0.2320 nh         1 C3Q      -0.782400
     89 O1           6.7350    -3.3310    -0.8950 o          1 C3Q      -0.535500
@<TRIPOS>BOND
     1     1     2 1   
     2     1     5 1   
     3     1    37 1   
     4     1    38 1   
     5     2     3 1   
     6     2     4 1   
     7     2    39 1   
     8     3     8 1   
     9     3    40 1   
    10     3    41 1   
    11     4     9 1   
    12     4    42 1   
    13     4    43 1   
    14     5     6 1   
    15     5     7 1   
    16     5    44 1   
    17     6     8 1   
    18     6    45 1   
    19     6    46 1   
    20     7     9 1   
    21     7    47 1   
    22     7    48 1   
    23     8    10 1   
    24     8    49 1   
    25     9    10 1   
    26     9    82 1   
    27    10    50 1   
    28    10    51 1   
    29    11    12 ar  
    30    11    14 ar  
    31    11    52 1   
    32    12    13 ar  
    33    12    53 1   
    34    13    16 ar  
    35    13    54 1   
    36    14    15 ar  
    37    14    88 1   
    38    15    16 ar  
    39    15    20 ar  
    40    16    17 ar  
    41    17    18 ar  
    42    17    34 1   
    43    18    19 ar  
    44    18    55 1   
    45    19    20 ar  
    46    19    56 1   
    47    20    57 1   
    48    21    58 1   
    49    21    59 1   
    50    21    60 1   
    51    21    88 1   
    52    22    61 1   
    53    22    62 1   
    54    22    63 1   
    55    22    88 1   
    56    23    24 1   
    57    23    36 2   
    58    23    87 1   
    59    24    25 1   
    60    24    64 1   
    61    25    26 1   
    62    25    65 1   
    63    25    66 1   
    64    26    27 1   
    65    26    67 1   
    66    26    68 1   
    67    27    28 1   
    68    27    69 1   
    69    27    70 1   
    70    28    29 1   
    71    28    71 1   
    72    28    72 1   
    73    29    30 1   
    74    29    73 1   
    75    29    74 1   
    76    30    31 1   
    77    30    75 1   
    78    30    76 1   
    79    31    32 1   
    80    31    77 1   
    81    31    78 1   
    82    32    33 1   
    83    32    79 1   
    84    32    80 1   
    85    33    34 1   
    86    33    81 1   
    87    34    35 2   
    88    34    89 2   
    89    82    85 1   
    90    82    86 1   
    91    82    87 1   
    92    83    87 1   
    93    84    87 1   
@<TRIPOS>SUBSTRUCTURE
     1 C3Q         1 TEMP              0 ****  ****    0 ROOT
