@<TRIPOS>MOLECULE
C3Q
   89    93     1     0     0
SMALL
No Charge or Current Charge


@<TRIPOS>ATOM
      1 C1         -11.7710     2.6040     0.4520 c6         1 C3Q      -0.068400
      2 C2         -11.9020     1.0640     0.6270 c6         1 C3Q      -0.058367
      3 C3         -12.2200     0.4090    -0.7470 c6         1 C3Q      -0.068400
      4 C4         -10.5610     0.4930     1.1710 c6         1 C3Q      -0.063067
      5 C5         -10.6240     2.9170    -0.5500 c6         1 C3Q      -0.058367
      6 C6         -10.9430     2.2610    -1.9240 c6         1 C3Q      -0.068400
      7 C7          -9.2840     2.3430    -0.0030 c6         1 C3Q      -0.063067
      8 C8         -11.0740     0.7200    -1.7500 c6         1 C3Q      -0.058367
      9 C9          -9.3830     0.7910     0.1830 c6         1 C3Q      -0.045000
     10 C10         -9.7340     0.1470    -1.2020 c6         1 C3Q      -0.063067
     11 C11          6.9550     2.6050     1.7870 ca         1 C3Q      -0.173000
     12 C12          6.9720     1.3620     2.4260 ca         1 C3Q      -0.056000
     13 C13          7.1960     0.1950     1.6840 ca         1 C3Q      -0.156000
     14 C14          7.1500     2.6970     0.4020 ca         1 C3Q       0.294000
     15 C15          7.3640     1.5140    -0.3580 ca         1 C3Q      -0.067000
     16 C16          7.4070     0.2420     0.2840 ca         1 C3Q       0.060000
     17 C17          7.6310    -0.9350    -0.5010 ca         1 C3Q      -0.304500
     18 C18          7.7780    -0.8140    -1.9000 ca         1 C3Q       0.014000
     19 C19          7.7160     0.4370    -2.5210 ca         1 C3Q      -0.154000
     20 C20          7.5150     1.5920    -1.7600 ca         1 C3Q      -0.026000
     21 C21          5.9610     4.8700    -0.0180 c3         1 C3Q       0.171100
     22 C22          8.3950     4.6180    -0.6230 c3         1 C3Q       0.171100
     23 C23         -5.5580    -0.2600     0.6660 c          1 C3Q       0.596100
     24 N2          -5.1030    -1.4260     0.0910 ns         1 C3Q      -0.508900
     25 C24         -3.9510    -2.1970     0.5610 c3         1 C3Q       0.104000
     26 C25         -2.6130    -1.5810     0.1030 c3         1 C3Q      -0.097400
     27 C26         -1.3870    -2.3950     0.5700 c3         1 C3Q      -0.073400
     28 C27         -0.0450    -1.7820     0.1120 c3         1 C3Q      -0.073400
     29 C28          1.1810    -2.5960     0.5800 c3         1 C3Q      -0.074400
     30 C29          2.5230    -1.9830     0.1210 c3         1 C3Q      -0.075400
     31 C30          3.7510    -2.7950     0.5890 c3         1 C3Q      -0.079400
     32 C31          5.0860    -2.1800     0.1290 c3         1 C3Q       0.210800
     33 N3           6.2040    -3.0090     0.6040 n7         1 C3Q      -0.880300
     34 S1           7.7710    -2.6190     0.1730 sy         1 C3Q       1.152600
     35 O2           8.4910    -2.5790     1.4460 o          1 C3Q      -0.535500
     36 O3          -5.0280     0.2370     1.6490 o          1 C3Q      -0.606100
     37 H1         -12.7180     3.0260     0.0890 hc         1 C3Q       0.039533
     38 H1A        -11.5690     3.0800     1.4210 hc         1 C3Q       0.039533
     39 H2         -12.7110     0.8420     1.3370 hc         1 C3Q       0.048700
     40 H3         -12.3390    -0.6780    -0.6310 hc         1 C3Q       0.039533
     41 H3A        -13.1770     0.7860    -1.1340 hc         1 C3Q       0.039533
     42 H4         -10.3490     0.9270     2.1580 hc         1 C3Q       0.039367
     43 H4A        -10.6590    -0.5910     1.3290 hc         1 C3Q       0.039367
     44 H5         -10.5330     4.0050    -0.6750 hc         1 C3Q       0.048700
     45 H6         -11.8730     2.6760    -2.3360 hc         1 C3Q       0.039533
     46 H6A        -10.1520     2.4950    -2.6500 hc         1 C3Q       0.039533
     47 H7          -8.4740     2.5990    -0.6990 hc         1 C3Q       0.039367
     48 H7A         -9.0330     2.8260     0.9530 hc         1 C3Q       0.039367
     49 H8         -11.3000     0.2580    -2.7210 hc         1 C3Q       0.048700
     50 H10         -9.8050    -0.9460    -1.1060 hc         1 C3Q       0.039367
     51 H10A        -8.9380     0.3410    -1.9330 hc         1 C3Q       0.039367
     52 H11          6.7940     3.5050     2.3730 ha         1 C3Q       0.119000
     53 H12          6.8130     1.3020     3.5000 ha         1 C3Q       0.117000
     54 H13          7.1770    -0.7370     2.2330 ha         1 C3Q       0.121000
     55 H18          7.9430    -1.6910    -2.5240 ha         1 C3Q       0.144000
     56 H19          7.8280     0.5120    -3.6000 ha         1 C3Q       0.121000
     57 H20          7.4650     2.5470    -2.2760 ha         1 C3Q       0.131000
     58 H22          6.0980     5.5290     0.8500 h1         1 C3Q       0.037700
     59 H22A         5.8160     5.4910    -0.9120 h1         1 C3Q       0.037700
     60 H22B         5.0490     4.2780     0.1320 h1         1 C3Q       0.037700
     61 H23          9.2040     3.8760    -0.6720 h1         1 C3Q       0.037700
     62 H23A         8.2780     5.0590    -1.6220 h1         1 C3Q       0.037700
     63 H23B         8.6920     5.4070     0.0800 h1         1 C3Q       0.037700
     64 HN25        -5.6060    -1.7580    -0.7240 hn         1 C3Q       0.311500
     65 H26         -3.9780    -2.2520     1.6580 h1         1 C3Q       0.050200
     66 H26A        -4.0340    -3.2200     0.1700 h1         1 C3Q       0.050200
     67 H27         -2.6070    -1.5120    -0.9920 hc         1 C3Q       0.048200
     68 H27A        -2.5340    -0.5570     0.4900 hc         1 C3Q       0.048200
     69 H28         -1.3970    -2.4640     1.6650 hc         1 C3Q       0.038700
     70 H28A        -1.4660    -3.4190     0.1830 hc         1 C3Q       0.038700
     71 H29         -0.0360    -1.7130    -0.9830 hc         1 C3Q       0.039200
     72 H29A         0.0330    -0.7580     0.4990 hc         1 C3Q       0.039200
     73 H30          1.1720    -2.6640     1.6750 hc         1 C3Q       0.040200
     74 H30A         1.1030    -3.6200     0.1940 hc         1 C3Q       0.040200
     75 H31          2.5320    -1.9150    -0.9740 hc         1 C3Q       0.038700
     76 H31A         2.6010    -0.9580     0.5060 hc         1 C3Q       0.038700
     77 H32          3.7420    -2.8630     1.6840 hc         1 C3Q       0.052200
     78 H32A         3.6760    -3.8190     0.2010 hc         1 C3Q       0.052200
     79 H33          5.0880    -2.1240    -0.9690 h1         1 C3Q       0.047700
     80 H33A         5.1470    -1.1560     0.5200 h1         1 C3Q       0.047700
     81 HN34         6.2670    -2.9640     1.6190 hn         1 C3Q       0.485000
     82 C33         -8.0610     0.1940     0.7820 c3         1 C3Q      -0.063400
     83 H39         -6.5520     1.4560    -0.1420 hc         1 C3Q       0.062200
     84 H39A        -6.8840    -0.0680    -1.0270 hc         1 C3Q       0.062200
     85 H48         -7.8970     0.6240     1.7780 hc         1 C3Q       0.047200
     86 H49         -8.1980    -0.8820     0.9450 hc         1 C3Q       0.047200
     87 C32         -6.7560     0.3850    -0.0380 c3         1 C3Q      -0.159400
     88 N1           7.1320     3.9850    -0.1880 nh         1 C3Q      -0.782400
     89 O1           8.1380    -3.5710    -0.8790 o          1 C3Q      -0.535500
@<TRIPOS>BOND
     1     1     2 1   
     2     1     5 1   
     3     1    37 1   
     4     1    38 1   
     5     2     3 1   
     6     2     4 1   
     7     2    39 1   
     8     3     8 1   
     9     3    40 1   
    10     3    41 1   
    11     4     9 1   
    12     4    42 1   
    13     4    43 1   
    14     5     6 1   
    15     5     7 1   
    16     5    44 1   
    17     6     8 1   
    18     6    45 1   
    19     6    46 1   
    20     7     9 1   
    21     7    47 1   
    22     7    48 1   
    23     8    10 1   
    24     8    49 1   
    25     9    10 1   
    26     9    82 1   
    27    10    50 1   
    28    10    51 1   
    29    11    12 ar  
    30    11    14 ar  
    31    11    52 1   
    32    12    13 ar  
    33    12    53 1   
    34    13    16 ar  
    35    13    54 1   
    36    14    15 ar  
    37    14    88 1   
    38    15    16 ar  
    39    15    20 ar  
    40    16    17 ar  
    41    17    18 ar  
    42    17    34 1   
    43    18    19 ar  
    44    18    55 1   
    45    19    20 ar  
    46    19    56 1   
    47    20    57 1   
    48    21    58 1   
    49    21    59 1   
    50    21    60 1   
    51    21    88 1   
    52    22    61 1   
    53    22    62 1   
    54    22    63 1   
    55    22    88 1   
    56    23    24 1   
    57    23    36 2   
    58    23    87 1   
    59    24    25 1   
    60    24    64 1   
    61    25    26 1   
    62    25    65 1   
    63    25    66 1   
    64    26    27 1   
    65    26    67 1   
    66    26    68 1   
    67    27    28 1   
    68    27    69 1   
    69    27    70 1   
    70    28    29 1   
    71    28    71 1   
    72    28    72 1   
    73    29    30 1   
    74    29    73 1   
    75    29    74 1   
    76    30    31 1   
    77    30    75 1   
    78    30    76 1   
    79    31    32 1   
    80    31    77 1   
    81    31    78 1   
    82    32    33 1   
    83    32    79 1   
    84    32    80 1   
    85    33    34 1   
    86    33    81 1   
    87    34    35 2   
    88    34    89 2   
    89    82    85 1   
    90    82    86 1   
    91    82    87 1   
    92    83    87 1   
    93    84    87 1   
@<TRIPOS>SUBSTRUCTURE
     1 C3Q         1 TEMP              0 ****  ****    0 ROOT
