@<TRIPOS>MOLECULE
C3R
   72    72     1     0     0
SMALL
No Charge or Current Charge


@<TRIPOS>ATOM
      1 C10         -3.8940     3.0010     0.3880 c3         1 C3R      -0.072400
      2 C13         -0.6980     2.6900    -0.5700 c3         1 C3R      -0.090100
      3 C15          0.0780    -0.2400    -0.2600 c2         1 C3R      -0.174400
      4 C17          0.9620    -0.3830    -1.2680 c2         1 C3R      -0.143200
      5 C20          3.3080     0.5060    -0.9530 c          1 C3R       0.593100
      6 C21          4.0770     0.6350     0.3780 c3         1 C3R      -0.146700
      7 C22          3.5670     1.8720     1.1640 c3         1 C3R      -0.075100
      8 C01         -7.6470     2.0860     1.2420 c3         1 C3R      -0.085100
      9 C02         -6.1380     1.8100     1.0690 c3         1 C3R      -0.031500
     10 C03         -5.9480     0.4390     0.4320 c2         1 C3R      -0.187200
     11 C04         -5.2780    -0.5940     0.9860 c2         1 C3R      -0.263200
     12 C05         -5.1390    -2.0170     0.4520 c3         1 C3R       0.218500
     13 O06         -5.6410    -2.1050    -0.8880 oh         1 C3R      -0.636000
     14 C07         -3.6960    -2.6120     0.5190 c3         1 C3R       0.129300
     15 O08         -3.7430    -4.0320     0.2040 oh         1 C3R      -0.636000
     16 C09         -5.4430     2.9690     0.2910 c3         1 C3R      -0.065400
     17 C11         -3.1700     1.9990    -0.5430 c3         1 C3R      -0.071400
     18 C12         -1.7250     1.6320    -0.0930 c3         1 C3R      -0.058700
     19 C14         -1.3680     0.1840    -0.5350 c3         1 C3R       0.226500
     20 C16          0.4000    -0.4380     1.2220 c3         1 C3R      -0.048900
     21 C18          2.4370    -0.7570    -1.1710 c3         1 C3R      -0.143500
     22 C19          2.9010    -1.5450    -2.4190 c3         1 C3R      -0.081100
     23 C23          5.6020     0.6470     0.0950 c3         1 C3R       0.211300
     24 O24          5.8780    -0.5420    -0.6720 os         1 C3R      -0.463000
     25 C25          7.1370    -0.5810    -1.3710 c3         1 C3R       0.159900
     26 O28          7.1190    -1.4810     2.0790 o          1 C3R      -0.740000
     27 O29          5.5080    -0.5080     3.1170 o          1 C3R      -0.740000
     28 O31         -2.2560    -0.6870     0.1920 os         1 C3R      -0.451100
     29 C32         -2.6970    -1.8430    -0.3980 c          1 C3R       0.568100
     30 O33         -2.3270    -2.2390    -1.5000 o          1 C3R      -0.462000
     31 H2          -3.5420     4.0120     0.1480 hc         1 C3R       0.039700
     32 H1          -3.6110     2.8180     1.4320 hc         1 C3R       0.039700
     33 H4          -0.9960     3.6930    -0.2440 hc         1 C3R       0.042700
     34 H3           0.2970     2.4880    -0.1570 hc         1 C3R       0.042700
     35 H5          -0.6200     2.6920    -1.6640 hc         1 C3R       0.042700
     36 H6           0.6310    -0.1970    -2.2920 ha         1 C3R       0.178000
     37 H7           3.8620    -0.2520     0.9810 hc         1 C3R       0.112700
     38 H10          2.4730     1.8520     1.2430 hc         1 C3R       0.035033
     39 H8           3.9690     1.8910     2.1830 hc         1 C3R       0.035033
     40 H9           3.8550     2.8020     0.6610 hc         1 C3R       0.035033
     41 H14         -8.1220     1.2840     1.8210 hc         1 C3R       0.032367
     42 H13         -7.8130     3.0300     1.7760 hc         1 C3R       0.032367
     43 H15         -8.1480     2.1500     0.2680 hc         1 C3R       0.032367
     44 H16         -5.7090     1.7940     2.0790 hc         1 C3R       0.046700
     45 H17         -6.4430     0.3370    -0.5350 ha         1 C3R       0.173000
     46 H18         -4.8010    -0.4600     1.9580 ha         1 C3R       0.174000
     47 H19         -5.7620    -2.6500     1.1000 h1         1 C3R       0.045700
     48 H20         -6.5930    -1.8730    -0.8410 ho         1 C3R       0.441000
     49 H21         -3.3310    -2.4840     1.5470 h1         1 C3R       0.056700
     50 H22         -4.1420    -4.0910    -0.6940 ho         1 C3R       0.457000
     51 H23         -5.8090     3.9200     0.6970 hc         1 C3R       0.037200
     52 H24         -5.7490     2.9500    -0.7630 hc         1 C3R       0.037200
     53 H25         -3.7670     1.0900    -0.6220 hc         1 C3R       0.042700
     54 H26         -3.1490     2.4050    -1.5620 hc         1 C3R       0.042700
     55 H27         -1.7020     1.6380     1.0030 hc         1 C3R       0.056700
     56 H28         -1.5640     0.1270    -1.6160 h1         1 C3R       0.065700
     57 H30         -0.1760    -1.2680     1.6480 hc         1 C3R       0.039033
     58 H31          1.4540    -0.6590     1.4070 hc         1 C3R       0.039033
     59 H29          0.1650     0.4600     1.8050 hc         1 C3R       0.039033
     60 H32          2.5800    -1.4320    -0.3210 hc         1 C3R       0.072700
     61 H34          2.8050    -0.9380    -3.3280 hc         1 C3R       0.044700
     62 H35          3.9510    -1.8460    -2.3180 hc         1 C3R       0.044700
     63 H33          2.2990    -2.4530    -2.5480 hc         1 C3R       0.044700
     64 H36          5.8160     1.5360    -0.5150 h1         1 C3R       0.007700
     65 H38          7.2590     0.3070    -2.0060 h1         1 C3R       0.020033
     66 H39          7.9820    -0.6330    -0.6740 h1         1 C3R       0.020033
     67 H37          7.1820    -1.4670    -2.0150 h1         1 C3R       0.020033
     68 C26          6.5260     0.7000     1.3490 c3         1 C3R      -0.234400
     69 C27          6.3620    -0.5370     2.2440 c          1 C3R       0.724000
     70 H12          7.5540     0.7690     0.9790 hc         1 C3R       0.024700
     71 H11          6.2280     1.6000     1.8970 hc         1 C3R       0.024700
     72 O30          3.3480     1.3960    -1.7980 o          1 C3R      -0.549100
@<TRIPOS>BOND
     1     1    16 1   
     2     1    17 1   
     3     1    31 1   
     4     1    32 1   
     5     2    18 1   
     6     2    33 1   
     7     2    34 1   
     8     2    35 1   
     9     3     4 2   
    10     3    19 1   
    11     3    20 1   
    12     4    21 1   
    13     4    36 1   
    14     5     6 1   
    15     5    21 1   
    16     5    72 2   
    17     6     7 1   
    18     6    23 1   
    19     6    37 1   
    20     7    38 1   
    21     7    39 1   
    22     7    40 1   
    23     8     9 1   
    24     8    41 1   
    25     8    42 1   
    26     8    43 1   
    27     9    10 1   
    28     9    16 1   
    29     9    44 1   
    30    10    11 2   
    31    10    45 1   
    32    11    12 1   
    33    11    46 1   
    34    12    13 1   
    35    12    14 1   
    36    12    47 1   
    37    13    48 1   
    38    14    15 1   
    39    14    29 1   
    40    14    49 1   
    41    15    50 1   
    42    16    51 1   
    43    16    52 1   
    44    17    18 1   
    45    17    53 1   
    46    17    54 1   
    47    18    19 1   
    48    18    55 1   
    49    19    28 1   
    50    19    56 1   
    51    20    57 1   
    52    20    58 1   
    53    20    59 1   
    54    21    22 1   
    55    21    60 1   
    56    22    61 1   
    57    22    62 1   
    58    22    63 1   
    59    23    24 1   
    60    23    64 1   
    61    23    68 1   
    62    24    25 1   
    63    25    65 1   
    64    25    66 1   
    65    25    67 1   
    66    26    69 1   
    67    27    69 1   
    68    28    29 1   
    69    29    30 2   
    70    68    69 1   
    71    68    70 1   
    72    68    71 1   
@<TRIPOS>SUBSTRUCTURE
     1 C3R         1 TEMP              0 ****  ****    0 ROOT
