@<TRIPOS>MOLECULE
C3R
   72    72     1     0     0
SMALL
abcg2


@<TRIPOS>ATOM
      1 C10         -3.9550     2.7850     0.5880 c3         1 C3R      -0.072400
      2 C13         -0.6620     2.5830    -0.7100 c3         1 C3R      -0.090100
      3 C15         -0.1100    -0.2250     0.1300 c2         1 C3R      -0.174400
      4 C17          0.8030    -0.6390    -0.7470 c2         1 C3R      -0.143200
      5 C20          3.1340     0.1860    -0.3580 c          1 C3R       0.593100
      6 C21          4.3480     0.0590     0.5440 c3         1 C3R      -0.146700
      7 C22          3.9840     0.6960     1.8870 c3         1 C3R      -0.075100
      8 C01         -7.8060     2.2270     0.2830 c3         1 C3R      -0.085100
      9 C02         -6.3620     1.9010     0.6650 c3         1 C3R      -0.031500
     10 C03         -5.9670     0.5700     0.0980 c2         1 C3R      -0.187200
     11 C04         -5.5840    -0.4740     0.8250 c2         1 C3R      -0.263200
     12 C05         -5.2790    -1.8480     0.3020 c3         1 C3R       0.218500
     13 O06         -5.3630    -1.9620    -1.0930 oh         1 C3R      -0.636000
     14 C07         -3.8960    -2.3570     0.7280 c3         1 C3R       0.129300
     15 O08         -3.8980    -3.7460     0.5730 oh         1 C3R      -0.636000
     16 C09         -5.4210     3.0300     0.2220 c3         1 C3R      -0.065400
     17 C11         -3.1460     2.1210    -0.5220 c3         1 C3R      -0.071400
     18 C12         -1.7330     1.7100    -0.0650 c3         1 C3R      -0.058700
     19 C14         -1.4560     0.2350    -0.3610 c3         1 C3R       0.226500
     20 C16          0.1490    -0.0930     1.6030 c3         1 C3R      -0.048900
     21 C18          2.2150    -1.0250    -0.4210 c3         1 C3R      -0.143500
     22 C19          2.7880    -1.9980    -1.4610 c3         1 C3R      -0.081100
     23 C23          5.5670     0.6960    -0.1150 c3         1 C3R       0.211300
     24 O24          5.7910    -0.0680    -1.2840 os         1 C3R      -0.463000
     25 C25          6.6960     0.5010    -2.1930 c3         1 C3R       0.159900
     26 O28          8.6100    -0.7690     0.6250 o          1 C3R      -0.740000
     27 O29          6.7920    -1.3610     1.7630 o          1 C3R      -0.740000
     28 O31         -2.4960    -0.5120     0.3120 os         1 C3R      -0.451100
     29 C32         -2.7930    -1.7260    -0.1180 c          1 C3R       0.568100
     30 O33         -2.2570    -2.2800    -1.0420 o          1 C3R      -0.462000
     31 H2          -3.4710     3.7280     0.8600 hc         1 C3R       0.039700
     32 H1          -3.9150     2.1580     1.4850 hc         1 C3R       0.039700
     33 H4          -0.8540     3.6350    -0.4970 hc         1 C3R       0.042700
     34 H3           0.3400     2.3450    -0.3540 hc         1 C3R       0.042700
     35 H5          -0.6610     2.4590    -1.7960 hc         1 C3R       0.042700
     36 H6           0.5250    -0.6780    -1.7970 ha         1 C3R       0.178000
     37 H7           4.5510    -0.9980     0.7200 hc         1 C3R       0.112700
     38 H10          3.0440     0.3000     2.2770 hc         1 C3R       0.035033
     39 H8           4.7530     0.4770     2.6260 hc         1 C3R       0.035033
     40 H9           3.8770     1.7780     1.8020 hc         1 C3R       0.035033
     41 H14         -8.4960     1.4640     0.6450 hc         1 C3R       0.032367
     42 H13         -8.1130     3.1850     0.7080 hc         1 C3R       0.032367
     43 H15         -7.9190     2.2940    -0.8010 hc         1 C3R       0.032367
     44 H16         -6.2980     1.8360     1.7570 hc         1 C3R       0.046700
     45 H17         -6.0220     0.4860    -0.9860 ha         1 C3R       0.173000
     46 H18         -5.5400    -0.3810     1.9070 ha         1 C3R       0.174000
     47 H19         -5.9890    -2.5330     0.7950 h1         1 C3R       0.045700
     48 H20         -6.2720    -1.7870    -1.3600 ho         1 C3R       0.441000
     49 H21         -3.7400    -2.0640     1.7750 h1         1 C3R       0.056700
     50 H22         -3.0710    -4.1040     0.9100 ho         1 C3R       0.457000
     51 H23         -5.7740     3.9530     0.6910 hc         1 C3R       0.037200
     52 H24         -5.5210     3.1870    -0.8580 hc         1 C3R       0.037200
     53 H25         -3.6970     1.2560    -0.8930 hc         1 C3R       0.042700
     54 H26         -3.0760     2.8110    -1.3680 hc         1 C3R       0.042700
     55 H27         -1.6690     1.8490     1.0210 hc         1 C3R       0.056700
     56 H28         -1.5360     0.0690    -1.4400 h1         1 C3R       0.065700
     57 H30         -0.7490    -0.2710     2.1930 hc         1 C3R       0.039033
     58 H31          0.9100    -0.7910     1.9490 hc         1 C3R       0.039033
     59 H29          0.5010     0.9120     1.8530 hc         1 C3R       0.039033
     60 H32          2.2590    -1.5250     0.5530 hc         1 C3R       0.072700
     61 H34          2.7830    -1.5520    -2.4560 hc         1 C3R       0.044700
     62 H35          3.8120    -2.2870    -1.2270 hc         1 C3R       0.044700
     63 H33          2.1830    -2.9040    -1.4940 hc         1 C3R       0.044700
     64 H36          5.2920     1.7240    -0.3980 h1         1 C3R       0.007700
     65 H38          6.4200     1.5280    -2.4610 h1         1 C3R       0.020033
     66 H39          7.7230     0.5120    -1.8140 h1         1 C3R       0.020033
     67 H37          6.6780    -0.1030    -3.1000 h1         1 C3R       0.020033
     68 C26          6.8170     0.7940     0.7610 c3         1 C3R      -0.234400
     69 C27          7.4650    -0.5640     1.0740 c          1 C3R       0.724000
     70 H12          7.5380     1.4520     0.2690 hc         1 C3R       0.024700
     71 H11          6.5420     1.3000     1.6910 hc         1 C3R       0.024700
     72 O30          2.8920     1.1980    -0.9750 o          1 C3R      -0.549100
@<TRIPOS>BOND
     1     1    16 1   
     2     1    17 1   
     3     1    31 1   
     4     1    32 1   
     5     2    18 1   
     6     2    33 1   
     7     2    34 1   
     8     2    35 1   
     9     3     4 2   
    10     3    19 1   
    11     3    20 1   
    12     4    21 1   
    13     4    36 1   
    14     5     6 1   
    15     5    21 1   
    16     5    72 2   
    17     6     7 1   
    18     6    23 1   
    19     6    37 1   
    20     7    38 1   
    21     7    39 1   
    22     7    40 1   
    23     8     9 1   
    24     8    41 1   
    25     8    42 1   
    26     8    43 1   
    27     9    10 1   
    28     9    16 1   
    29     9    44 1   
    30    10    11 2   
    31    10    45 1   
    32    11    12 1   
    33    11    46 1   
    34    12    13 1   
    35    12    14 1   
    36    12    47 1   
    37    13    48 1   
    38    14    15 1   
    39    14    29 1   
    40    14    49 1   
    41    15    50 1   
    42    16    51 1   
    43    16    52 1   
    44    17    18 1   
    45    17    53 1   
    46    17    54 1   
    47    18    19 1   
    48    18    55 1   
    49    19    28 1   
    50    19    56 1   
    51    20    57 1   
    52    20    58 1   
    53    20    59 1   
    54    21    22 1   
    55    21    60 1   
    56    22    61 1   
    57    22    62 1   
    58    22    63 1   
    59    23    24 1   
    60    23    64 1   
    61    23    68 1   
    62    24    25 1   
    63    25    65 1   
    64    25    66 1   
    65    25    67 1   
    66    26    69 1   
    67    27    69 1   
    68    28    29 1   
    69    29    30 2   
    70    68    69 1   
    71    68    70 1   
    72    68    71 1   
@<TRIPOS>SUBSTRUCTURE
     1 C3R         1 TEMP              0 ****  ****    0 ROOT
