@<TRIPOS>MOLECULE
C3S
   77    80     1     0     0
SMALL
bcc


@<TRIPOS>ATOM
      1 C65         -0.8910    -0.7650    10.9230 c3         1 C3S      -0.086600
      2 C63          0.0480    -0.1620     9.8820 c3         1 C3S      -0.059700
      3 C69          1.4930    -0.5380    10.1950 c3         1 C3S      -0.086600
      4 C60         -0.3710    -0.5980     8.4770 c3         1 C3S      -0.073400
      5 C57          0.3940     0.0650     7.3370 c3         1 C3S      -0.073400
      6 C54         -0.1200    -0.3800     5.9710 c3         1 C3S      -0.077400
      7 C48          0.5300     0.3100     4.7630 c3         1 C3S      -0.045700
      8 C50          2.0140    -0.0390     4.6840 c3         1 C3S      -0.086100
      9 C38         -0.2440    -0.0500     3.4870 c5         1 C3S      -0.055700
     10 C35         -1.7260     0.4110     3.5570 c5         1 C3S      -0.076400
     11 C29          0.2380     0.5010     2.1210 c5         1 C3S      -0.036000
     12 C26          1.4020    -0.2360     1.4560 c6         1 C3S      -0.060400
     13 C40          0.5330     2.0010     2.2320 c3         1 C3S      -0.076100
     14 C30         -1.0100     0.2140     1.2700 c5         1 C3S      -0.063700
     15 C32         -2.1670     0.7290     2.1160 c5         1 C3S      -0.072400
     16 C18         -0.9250     0.6530    -0.1810 c6         1 C3S      -0.042700
     17 C15         -2.2040     0.2800    -0.9230 c6         1 C3S      -0.030200
     18 C20          0.2850    -0.0140    -0.8490 c6         1 C3S      -0.046700
     19 C23          1.5580     0.1620    -0.0150 c6         1 C3S      -0.071400
     20 C22          0.4590     0.4230    -2.3270 c6         1 C3S       0.000200
     21 C44          1.0160     1.8500    -2.4410 c3         1 C3S      -0.077100
     22 C12         -0.8790     0.3760    -3.0470 c2         1 C3S      -0.086400
     23 C9          -0.8460     0.4520    -4.5520 c6         1 C3S      -0.065200
     24 C13         -2.0430     0.2950    -2.4060 c2         1 C3S      -0.195200
     25 C1           1.4180    -0.5670    -3.0230 c6         1 C3S      -0.066400
     26 C4           1.4980    -0.4100    -4.5370 c6         1 C3S      -0.085400
     27 C7           0.1200    -0.5590    -5.1520 c6         1 C3S       0.214100
     28 O6           0.2200    -0.3470    -6.5640 os         1 C3S      -0.579500
     29 S1          -0.5060    -1.4280    -7.5560 s6         1 C3S       1.498300
     30 O3          -1.9110    -1.4820    -7.1400 o          1 C3S      -0.711533
     31 O2          -0.2800    -0.8000    -8.8570 o          1 C3S      -0.711533
     32 O4           0.2100    -2.6910    -7.3570 o          1 C3S      -0.711533
     33 H651        -0.6300    -0.4410    11.9320 hc         1 C3S       0.030700
     34 H652        -1.9290    -0.4810    10.7410 hc         1 C3S       0.030700
     35 H653        -0.8390    -1.8570    10.9030 hc         1 C3S       0.030700
     36 H63         -0.0420     0.9300     9.9360 hc         1 C3S       0.042700
     37 H691         1.6340    -1.6190    10.1170 hc         1 C3S       0.030700
     38 H692         2.2010    -0.0630     9.5150 hc         1 C3S       0.030700
     39 H693         1.7660    -0.2410    11.2090 hc         1 C3S       0.030700
     40 H601        -0.2670    -1.6880     8.3980 hc         1 C3S       0.036200
     41 H602        -1.4400    -0.3910     8.3490 hc         1 C3S       0.036200
     42 H571         0.3000     1.1540     7.4230 hc         1 C3S       0.036700
     43 H572         1.4590    -0.1570     7.4330 hc         1 C3S       0.036700
     44 H541         0.0080    -1.4650     5.8720 hc         1 C3S       0.037200
     45 H542        -1.2000    -0.2070     5.9510 hc         1 C3S       0.037200
     46 H48          0.4400     1.3940     4.9140 hc         1 C3S       0.043700
     47 H501         2.1560    -1.0930     4.4350 hc         1 C3S       0.031367
     48 H502         2.5340     0.5500     3.9300 hc         1 C3S       0.031367
     49 H503         2.5210     0.1490     5.6310 hc         1 C3S       0.031367
     50 H38         -0.2260    -1.1460     3.3980 hc         1 C3S       0.044700
     51 H351        -2.3570    -0.3570     4.0040 hc         1 C3S       0.034700
     52 H352        -1.8120     1.2920     4.1990 hc         1 C3S       0.034700
     53 H261         1.2250    -1.3150     1.5310 hc         1 C3S       0.035200
     54 H262         2.3490    -0.0430     1.9630 hc         1 C3S       0.035200
     55 H401         0.7460     2.4610     1.2680 hc         1 C3S       0.030033
     56 H402        -0.2980     2.5550     2.6710 hc         1 C3S       0.030033
     57 H403         1.4030     2.1790     2.8660 hc         1 C3S       0.030033
     58 H30         -1.1030    -0.8840     1.2460 hc         1 C3S       0.043700
     59 H321        -3.1150     0.2540     1.8560 hc         1 C3S       0.041200
     60 H322        -2.3060     1.8030     1.9670 hc         1 C3S       0.041200
     61 H18         -0.8070     1.7420    -0.2280 hc         1 C3S       0.050700
     62 H151        -2.5400    -0.7170    -0.6070 hc         1 C3S       0.036200
     63 H152        -3.0160     0.9570    -0.6400 hc         1 C3S       0.036200
     64 H20          0.0630    -1.0910    -0.8720 hc         1 C3S       0.048700
     65 H231         2.3690    -0.4280    -0.4510 hc         1 C3S       0.039200
     66 H232         1.8930     1.2010    -0.0650 hc         1 C3S       0.039200
     67 H441         1.0080     2.2000    -3.4740 hc         1 C3S       0.030700
     68 H442         0.4220     2.5570    -1.8600 hc         1 C3S       0.030700
     69 H443         2.0480     1.9130    -2.0950 hc         1 C3S       0.030700
     70 H91         -1.8490     0.2910    -4.9530 hc         1 C3S       0.064700
     71 H92         -0.5320     1.4520    -4.8720 hc         1 C3S       0.064700
     72 H13         -2.9560     0.2450    -2.9950 ha         1 C3S       0.128000
     73 H11          2.4220    -0.4630    -2.6060 hc         1 C3S       0.032200
     74 H12          1.0920    -1.5880    -2.7930 hc         1 C3S       0.032200
     75 H41          2.1730    -1.1640    -4.9490 hc         1 C3S       0.050700
     76 H42          1.9140     0.5680    -4.8010 hc         1 C3S       0.050700
     77 H7          -0.2450    -1.5720    -4.9400 h1         1 C3S       0.047700
@<TRIPOS>BOND
     1     1     2 1   
     2     1    33 1   
     3     1    34 1   
     4     1    35 1   
     5     2     3 1   
     6     2     4 1   
     7     2    36 1   
     8     3    37 1   
     9     3    38 1   
    10     3    39 1   
    11     4     5 1   
    12     4    40 1   
    13     4    41 1   
    14     5     6 1   
    15     5    42 1   
    16     5    43 1   
    17     6     7 1   
    18     6    44 1   
    19     6    45 1   
    20     7     8 1   
    21     7     9 1   
    22     7    46 1   
    23     8    47 1   
    24     8    48 1   
    25     8    49 1   
    26     9    10 1   
    27     9    11 1   
    28     9    50 1   
    29    10    15 1   
    30    10    51 1   
    31    10    52 1   
    32    11    12 1   
    33    11    13 1   
    34    11    14 1   
    35    12    19 1   
    36    12    53 1   
    37    12    54 1   
    38    13    55 1   
    39    13    56 1   
    40    13    57 1   
    41    14    15 1   
    42    14    16 1   
    43    14    58 1   
    44    15    59 1   
    45    15    60 1   
    46    16    17 1   
    47    16    18 1   
    48    16    61 1   
    49    17    24 1   
    50    17    62 1   
    51    17    63 1   
    52    18    19 1   
    53    18    20 1   
    54    18    64 1   
    55    19    65 1   
    56    19    66 1   
    57    20    21 1   
    58    20    22 1   
    59    20    25 1   
    60    21    67 1   
    61    21    68 1   
    62    21    69 1   
    63    22    23 1   
    64    22    24 2   
    65    23    27 1   
    66    23    70 1   
    67    23    71 1   
    68    24    72 1   
    69    25    26 1   
    70    25    73 1   
    71    25    74 1   
    72    26    27 1   
    73    26    75 1   
    74    26    76 1   
    75    27    28 1   
    76    27    77 1   
    77    28    29 1   
    78    29    30 1   
    79    29    31 1   
    80    29    32 1   
@<TRIPOS>SUBSTRUCTURE
     1 C3S         1 TEMP              0 ****  ****    0 ROOT
