@<TRIPOS>MOLECULE
C3S
   77    80     1     0     0
SMALL
No Charge or Current Charge


@<TRIPOS>ATOM
      1 C65         -0.9210    -0.7410    11.1100 c3         1 C3S      -0.086600
      2 C63          0.0850    -0.2740    10.0330 c3         1 C3S      -0.059700
      3 C69          1.5070    -0.7970    10.3510 c3         1 C3S      -0.086600
      4 C60         -0.4040    -0.6680     8.6110 c3         1 C3S      -0.073400
      5 C57          0.4450    -0.0960     7.4490 c3         1 C3S      -0.073400
      6 C54         -0.1450    -0.4310     6.0550 c3         1 C3S      -0.077400
      7 C48          0.5520     0.2550     4.8350 c3         1 C3S      -0.045700
      8 C50          2.0230    -0.2190     4.7030 c3         1 C3S      -0.086100
      9 C38         -0.2900     0.0150     3.4990 c5         1 C3S      -0.055700
     10 C35         -1.7520     0.5930     3.5810 c5         1 C3S      -0.076400
     11 C29          0.2480     0.6290     2.1240 c5         1 C3S      -0.036000
     12 C26          1.4620    -0.0920     1.4080 c6         1 C3S      -0.060400
     13 C40          0.5880     2.1550     2.2560 c3         1 C3S      -0.076100
     14 C30         -1.0240     0.3070     1.2780 c5         1 C3S      -0.063700
     15 C32         -2.1680     0.9280     2.1170 c5         1 C3S      -0.072400
     16 C18         -0.9490     0.7250    -0.2230 c6         1 C3S      -0.042700
     17 C15         -2.2510     0.3140    -0.9630 c6         1 C3S      -0.030200
     18 C20          0.2960     0.0750    -0.9140 c6         1 C3S      -0.046700
     19 C23          1.6030     0.3210    -0.0820 c6         1 C3S      -0.071400
     20 C22          0.4210     0.5010    -2.4380 c6         1 C3S       0.000200
     21 C44          0.8620     2.0000    -2.5900 c3         1 C3S      -0.077100
     22 C12         -0.9500     0.3730    -3.1420 c2         1 C3S      -0.086400
     23 C9          -0.9340     0.3690    -4.6740 c6         1 C3S      -0.065200
     24 C13         -2.1160     0.3020    -2.4750 c2         1 C3S      -0.245200
     25 C1           1.4660    -0.4370    -3.1390 c6         1 C3S      -0.066400
     26 C4           1.4650    -0.3390    -4.6840 c6         1 C3S      -0.085400
     27 C7           0.0670    -0.6540    -5.2600 c6         1 C3S       0.237300
     28 O6           0.1030    -0.5200    -6.6900 os         1 C3S      -0.602700
     29 S1          -0.3090    -1.8240    -7.5980 s6         1 C3S       1.498300
     30 O3          -1.6910    -2.1190    -7.1950 o          1 C3S      -0.711533
     31 O2          -0.1670    -1.3480    -8.9810 o          1 C3S      -0.711533
     32 O4           0.6650    -2.8540    -7.2070 o          1 C3S      -0.711533
     33 H651        -0.6030    -0.4120    12.1070 hc         1 C3S       0.030700
     34 H652        -1.9160    -0.3210    10.9200 hc         1 C3S       0.030700
     35 H653        -1.0050    -1.8340    11.1190 hc         1 C3S       0.030700
     36 H63          0.1200     0.8220    10.0810 hc         1 C3S       0.042700
     37 H691         1.5560    -1.8870    10.2440 hc         1 C3S       0.030700
     38 H692         2.2540    -0.3490     9.6850 hc         1 C3S       0.030700
     39 H693         1.7910    -0.5420    11.3790 hc         1 C3S       0.030700
     40 H601        -0.4350    -1.7610     8.5290 hc         1 C3S       0.036200
     41 H602        -1.4360    -0.3170     8.4890 hc         1 C3S       0.036200
     42 H571         0.5190     0.9930     7.5590 hc         1 C3S       0.036700
     43 H572         1.4590    -0.5020     7.5250 hc         1 C3S       0.036700
     44 H541        -0.1330    -1.5190     5.9130 hc         1 C3S       0.037200
     45 H542        -1.2000    -0.1370     6.0770 hc         1 C3S       0.037200
     46 H48          0.6160     1.3330     5.1000 hc         1 C3S       0.043700
     47 H501         2.0740    -1.2420     4.3120 hc         1 C3S       0.031367
     48 H502         2.5830     0.4450     4.0390 hc         1 C3S       0.031367
     49 H503         2.5530    -0.1920     5.6590 hc         1 C3S       0.031367
     50 H38         -0.3490    -1.0760     3.3970 hc         1 C3S       0.044700
     51 H351        -2.4380    -0.1340     4.0300 hc         1 C3S       0.034700
     52 H352        -1.8000     1.4930     4.2050 hc         1 C3S       0.034700
     53 H261         1.3270    -1.1810     1.4680 hc         1 C3S       0.035200
     54 H262         2.4090     0.1240     1.9140 hc         1 C3S       0.035200
     55 H401         0.6690     2.6510     1.2830 hc         1 C3S       0.030033
     56 H402        -0.1620     2.7090     2.8300 hc         1 C3S       0.030033
     57 H403         1.5440     2.2990     2.7720 hc         1 C3S       0.030033
     58 H30         -1.1640    -0.7810     1.2560 hc         1 C3S       0.043700
     59 H321        -3.1440     0.4970     1.8640 hc         1 C3S       0.041200
     60 H322        -2.2500     2.0090     1.9590 hc         1 C3S       0.041200
     61 H18         -0.8590     1.8160    -0.2720 hc         1 C3S       0.050700
     62 H151        -2.5690    -0.6880    -0.6440 hc         1 C3S       0.036200
     63 H152        -3.0630     0.9980    -0.6790 hc         1 C3S       0.036200
     64 H20          0.1190    -1.0100    -0.8970 hc         1 C3S       0.048700
     65 H231         2.4360    -0.2480    -0.5120 hc         1 C3S       0.039200
     66 H232         1.9040     1.3740    -0.1290 hc         1 C3S       0.039200
     67 H441         0.8760     2.3220    -3.6360 hc         1 C3S       0.030700
     68 H442         0.1860     2.6820    -2.0640 hc         1 C3S       0.030700
     69 H443         1.8740     2.1720    -2.2070 hc         1 C3S       0.030700
     70 H91         -1.9360     0.1470    -5.0640 hc         1 C3S       0.064700
     71 H92         -0.6890     1.3730    -5.0440 hc         1 C3S       0.064700
     72 H13         -3.0580     0.2270    -3.0210 ha         1 C3S       0.178000
     73 H11          2.4790    -0.2180    -2.7780 hc         1 C3S       0.032200
     74 H12          1.2660    -1.4820    -2.8650 hc         1 C3S       0.032200
     75 H41          2.1950    -1.0520    -5.0910 hc         1 C3S       0.050700
     76 H42          1.7970     0.6570    -5.0080 hc         1 C3S       0.050700
     77 H7          -0.2330    -1.6720    -4.9640 h1         1 C3S       0.047700
@<TRIPOS>BOND
     1     1     2 1   
     2     1    33 1   
     3     1    34 1   
     4     1    35 1   
     5     2     3 1   
     6     2     4 1   
     7     2    36 1   
     8     3    37 1   
     9     3    38 1   
    10     3    39 1   
    11     4     5 1   
    12     4    40 1   
    13     4    41 1   
    14     5     6 1   
    15     5    42 1   
    16     5    43 1   
    17     6     7 1   
    18     6    44 1   
    19     6    45 1   
    20     7     8 1   
    21     7     9 1   
    22     7    46 1   
    23     8    47 1   
    24     8    48 1   
    25     8    49 1   
    26     9    10 1   
    27     9    11 1   
    28     9    50 1   
    29    10    15 1   
    30    10    51 1   
    31    10    52 1   
    32    11    12 1   
    33    11    13 1   
    34    11    14 1   
    35    12    19 1   
    36    12    53 1   
    37    12    54 1   
    38    13    55 1   
    39    13    56 1   
    40    13    57 1   
    41    14    15 1   
    42    14    16 1   
    43    14    58 1   
    44    15    59 1   
    45    15    60 1   
    46    16    17 1   
    47    16    18 1   
    48    16    61 1   
    49    17    24 1   
    50    17    62 1   
    51    17    63 1   
    52    18    19 1   
    53    18    20 1   
    54    18    64 1   
    55    19    65 1   
    56    19    66 1   
    57    20    21 1   
    58    20    22 1   
    59    20    25 1   
    60    21    67 1   
    61    21    68 1   
    62    21    69 1   
    63    22    23 1   
    64    22    24 2   
    65    23    27 1   
    66    23    70 1   
    67    23    71 1   
    68    24    72 1   
    69    25    26 1   
    70    25    73 1   
    71    25    74 1   
    72    26    27 1   
    73    26    75 1   
    74    26    76 1   
    75    27    28 1   
    76    27    77 1   
    77    28    29 1   
    78    29    30 1   
    79    29    31 1   
    80    29    32 1   
@<TRIPOS>SUBSTRUCTURE
     1 C3S         1 TEMP              0 ****  ****    0 ROOT
