@<TRIPOS>MOLECULE
C3T
   77    79     1     0     0
SMALL
No Charge or Current Charge


@<TRIPOS>ATOM
      1 CAC         -9.3860     0.9900     0.5800 c3         1 C3T      -0.082433
      2 CBI         -8.5310     0.1400    -0.3980 c3         1 C3T      -0.000700
      3 CAD         -8.8020    -1.3670    -0.1420 c3         1 C3T      -0.082433
      4 CAE         -8.9920     0.4690    -1.8460 c3         1 C3T      -0.082433
      5 CBB         -7.0260     0.4390    -0.1560 ca         1 C3T      -0.059300
      6 CAM         -6.4610     0.1900     1.1170 ca         1 C3T      -0.111000
      7 CAK         -5.1050     0.4460     1.3760 ca         1 C3T      -0.098500
      8 CAL         -6.1740     0.9560    -1.1640 ca         1 C3T      -0.111000
      9 CAJ         -4.8170     1.2120    -0.9040 ca         1 C3T      -0.098500
     10 CBA         -4.2740     0.9610     0.3680 ca         1 C3T      -0.117300
     11 CAP         -2.8040     1.2310     0.6450 c3         1 C3T       0.144300
     12 NAV         -2.0020     0.0380     0.4000 ns         1 C3T      -0.494900
     13 CAY         -0.6470    -0.0430     0.6350 c          1 C3T       0.602100
     14 OAG          0.0130     0.9010     1.0530 o          1 C3T      -0.611100
     15 CBG         -0.1340    -1.4670     0.2470 c5         1 C3T       0.022700
     16 NBH          1.3590    -1.5600     0.1880 n          1 C3T      -0.393800
     17 CAZ          2.0340    -1.2900    -1.0290 c          1 C3T       0.546000
     18 OAH          1.3950    -1.0920    -2.0550 o          1 C3T      -0.557000
     19 CAT         -0.4870    -2.4860     1.3710 c5         1 C3T      -0.081400
     20 CAS          0.7460    -2.3810     2.2900 c5         1 C3T      -0.095400
     21 CBE          1.9070    -2.4340     1.2610 c5         1 C3T       0.128700
     22 CAR          3.2270    -1.9380     1.8870 c3         1 C3T      -0.096400
     23 CAQ          4.5040    -2.2960     1.0910 c3         1 C3T      -0.069400
     24 CBD          4.3580    -2.3080    -0.4610 c3         1 C3T      -0.066700
     25 CAO          5.7310    -2.4850    -1.1630 c3         1 C3T       0.163600
     26 OAI          6.3010    -3.7610    -0.8400 oh         1 C3T      -0.667000
     27 CBF          3.5770    -1.0880    -1.0330 c3         1 C3T       0.042700
     28 NAW          3.9070     0.1880    -0.3550 ns         1 C3T      -0.504900
     29 C            4.9500     1.0280    -0.6930 c          1 C3T       0.602100
     30 O            5.6850     0.7750    -1.6400 o          1 C3T      -0.578100
     31 CA           5.1300     2.3340     0.1780 c3         1 C3T       0.100500
     32 CB           3.8720     2.7320     1.0160 c3         1 C3T      -0.064400
     33 CAA          2.6510     3.2000     0.1870 c3         1 C3T      -0.087100
     34 N            5.6260     3.5020    -0.6280 n7         1 C3T      -0.851400
     35 CAB          6.2500     4.6080     0.1270 c3         1 C3T       0.149100
     36 H1          -9.1820     2.0590     0.4420 hc         1 C3T       0.035478
     37 H2         -10.4570     0.8260     0.4100 hc         1 C3T       0.035478
     38 H3          -9.1760     0.7390     1.6260 hc         1 C3T       0.035478
     39 H4          -9.8520    -1.6160    -0.3380 hc         1 C3T       0.035478
     40 H5          -8.1790    -1.9880    -0.7980 hc         1 C3T       0.035478
     41 H6          -8.5840    -1.6480     0.8950 hc         1 C3T       0.035478
     42 H7          -8.8480     1.5320    -2.0760 hc         1 C3T       0.035478
     43 H8          -8.4390    -0.1260    -2.5830 hc         1 C3T       0.035478
     44 H9         -10.0580     0.2460    -1.9770 hc         1 C3T       0.035478
     45 H10         -7.0740    -0.2080     1.9220 ha         1 C3T       0.112000
     46 H11         -4.6990     0.2420     2.3650 ha         1 C3T       0.113500
     47 H12         -6.5410     1.1680    -2.1640 ha         1 C3T       0.112000
     48 H13         -4.1850     1.6060    -1.6970 ha         1 C3T       0.113500
     49 H14         -2.4440     2.0440     0.0010 h1         1 C3T       0.067200
     50 H15         -2.6740     1.5440     1.6900 h1         1 C3T       0.067200
     51 H16         -2.4660    -0.7890     0.0460 hn         1 C3T       0.315500
     52 H17         -0.6080    -1.7550    -0.7020 h1         1 C3T       0.081700
     53 H18         -1.4260    -2.2590     1.8910 hc         1 C3T       0.058700
     54 H19         -0.5840    -3.5000     0.9630 hc         1 C3T       0.058700
     55 H20          0.7440    -1.4400     2.8550 hc         1 C3T       0.062700
     56 H21          0.7980    -3.1980     3.0180 hc         1 C3T       0.062700
     57 H22          2.0400    -3.4620     0.8950 h1         1 C3T       0.056700
     58 H23          3.1760    -0.8540     2.0420 hc         1 C3T       0.055700
     59 H24          3.3380    -2.3680     2.8910 hc         1 C3T       0.055700
     60 H25          5.3030    -1.6020     1.3830 hc         1 C3T       0.053200
     61 H26          4.8370    -3.2910     1.4110 hc         1 C3T       0.053200
     62 H27          3.7780    -3.1990    -0.7320 hc         1 C3T       0.067700
     63 H28          5.5940    -2.4070    -2.2500 h1         1 C3T       0.028700
     64 H29          6.4070    -1.6770    -0.8530 h1         1 C3T       0.028700
     65 H30          7.1670    -3.8130    -1.3030 ho         1 C3T       0.447000
     66 H31          3.8350    -0.9860    -2.0960 h1         1 C3T       0.105700
     67 H32          3.3180     0.4840     0.4140 hn         1 C3T       0.314500
     68 H33          5.9070     2.0610     0.9060 h1         1 C3T       0.022700
     69 H34          3.5730     1.8910     1.6530 hc         1 C3T       0.039700
     70 H35          4.1410     3.5330     1.7140 hc         1 C3T       0.039700
     71 H36          1.8110     3.4360     0.8510 hc         1 C3T       0.043367
     72 H37          2.8910     4.1030    -0.3870 hc         1 C3T       0.043367
     73 H38          2.3200     2.4250    -0.5140 hc         1 C3T       0.043367
     74 H39          6.3300     3.1370    -1.2860 hn         1 C3T       0.430000
     75 H41          6.6200     5.3790    -0.5610 h1         1 C3T       0.027700
     76 H42          5.5320     5.0840     0.8070 h1         1 C3T       0.027700
     77 H43          7.1010     4.2460     0.7210 h1         1 C3T       0.027700
@<TRIPOS>BOND
     1     1     2 1   
     2     1    36 1   
     3     1    37 1   
     4     1    38 1   
     5     2     3 1   
     6     2     4 1   
     7     2     5 1   
     8     3    39 1   
     9     3    40 1   
    10     3    41 1   
    11     4    42 1   
    12     4    43 1   
    13     4    44 1   
    14     5     6 ar  
    15     5     8 ar  
    16     6     7 ar  
    17     6    45 1   
    18     7    10 ar  
    19     7    46 1   
    20     8     9 ar  
    21     8    47 1   
    22     9    10 ar  
    23     9    48 1   
    24    10    11 1   
    25    11    12 1   
    26    11    49 1   
    27    11    50 1   
    28    12    13 1   
    29    12    51 1   
    30    13    14 2   
    31    13    15 1   
    32    15    16 1   
    33    15    19 1   
    34    15    52 1   
    35    16    17 1   
    36    16    21 1   
    37    17    18 2   
    38    17    27 1   
    39    19    20 1   
    40    19    53 1   
    41    19    54 1   
    42    20    21 1   
    43    20    55 1   
    44    20    56 1   
    45    21    22 1   
    46    21    57 1   
    47    22    23 1   
    48    22    58 1   
    49    22    59 1   
    50    23    24 1   
    51    23    60 1   
    52    23    61 1   
    53    24    25 1   
    54    24    27 1   
    55    24    62 1   
    56    25    26 1   
    57    25    63 1   
    58    25    64 1   
    59    26    65 1   
    60    27    28 1   
    61    27    66 1   
    62    28    29 1   
    63    28    67 1   
    64    29    30 2   
    65    29    31 1   
    66    31    32 1   
    67    31    34 1   
    68    31    68 1   
    69    32    33 1   
    70    32    69 1   
    71    32    70 1   
    72    33    71 1   
    73    33    72 1   
    74    33    73 1   
    75    34    35 1   
    76    34    74 1   
    77    35    75 1   
    78    35    76 1   
    79    35    77 1   
@<TRIPOS>SUBSTRUCTURE
     1 C3T         1 TEMP              0 ****  ****    0 ROOT
