@<TRIPOS>MOLECULE
C3T
   77    79     1     0     0
SMALL
bcc


@<TRIPOS>ATOM
      1 CAC         -8.0570     0.8130     1.8410 c3         1 C3T      -0.082433
      2 CBI         -7.8190     0.3440     0.4000 c3         1 C3T      -0.000700
      3 CAD         -8.1060    -1.1600     0.2960 c3         1 C3T      -0.082433
      4 CAE         -8.7960     1.0870    -0.5110 c3         1 C3T      -0.082433
      5 CBB         -6.3650     0.6030     0.0200 ca         1 C3T      -0.059300
      6 CAM         -5.3360     0.0280     0.7750 ca         1 C3T      -0.129000
      7 CAK         -4.0040     0.2310     0.4630 ca         1 C3T      -0.116500
      8 CAL         -5.9910     1.3900    -1.0640 ca         1 C3T      -0.129000
      9 CAJ         -4.6510     1.5930    -1.3820 ca         1 C3T      -0.116500
     10 CBA         -3.6400     1.0220    -0.6260 ca         1 C3T      -0.117300
     11 CAP         -2.1890     1.2500    -0.9670 c3         1 C3T       0.144300
     12 NAV         -1.4700     0.0130    -1.1630 ns         1 C3T      -0.561900
     13 CAY         -0.4920    -0.4310    -0.3570 c          1 C3T       0.669100
     14 OAG         -0.0640     0.1860     0.6050 o          1 C3T      -0.611100
     15 CBG         -0.0020    -1.8410    -0.6890 c5         1 C3T       0.022700
     16 NBH          1.3950    -1.9770    -0.3170 n          1 C3T      -0.460800
     17 CAZ          2.2730    -1.2060    -0.9800 c          1 C3T       0.688500
     18 OAH          1.9020    -0.5020    -1.9130 o          1 C3T      -0.632500
     19 CAT         -0.7100    -2.8820     0.1830 c5         1 C3T      -0.081400
     20 CAS          0.1580    -2.9420     1.4280 c5         1 C3T      -0.095400
     21 CBE          1.5830    -2.7870     0.8980 c5         1 C3T       0.128700
     22 CAR          2.5150    -2.1570     1.9200 c3         1 C3T      -0.096400
     23 CAQ          3.9970    -2.3860     1.6310 c3         1 C3T      -0.069400
     24 CBD          4.3560    -2.3360     0.1480 c3         1 C3T      -0.066700
     25 CAO          5.8650    -2.3290    -0.0670 c3         1 C3T       0.140400
     26 OAI          6.4290    -3.4620     0.5500 oh         1 C3T      -0.604800
     27 CBF          3.7540    -1.1420    -0.5910 c3         1 C3T       0.042700
     28 NAW          3.9750     0.1120     0.0980 ns         1 C3T      -0.571900
     29 C            4.4170     1.2400    -0.5010 c          1 C3T       0.669100
     30 O            4.8950     1.2620    -1.6220 o          1 C3T      -0.578100
     31 CA           4.2830     2.4860     0.3710 c3         1 C3T       0.100500
     32 CB           2.7970     2.7960     0.6190 c3         1 C3T      -0.064400
     33 CAA          2.0000     3.0520    -0.6500 c3         1 C3T      -0.087100
     34 N            4.9550     3.5980    -0.2620 n7         1 C3T      -0.796200
     35 CAB          5.2320     4.6950     0.6410 c3         1 C3T       0.149100
     36 H1          -7.8590     1.8820     1.9440 hc         1 C3T       0.035478
     37 H2          -9.0950     0.6360     2.1330 hc         1 C3T       0.035478
     38 H3          -7.4230     0.2860     2.5550 hc         1 C3T       0.035478
     39 H4          -9.1460    -1.3660     0.5580 hc         1 C3T       0.035478
     40 H5          -7.9370    -1.5230    -0.7190 hc         1 C3T       0.035478
     41 H6          -7.4760    -1.7430     0.9690 hc         1 C3T       0.035478
     42 H7          -8.6620     2.1690    -0.4590 hc         1 C3T       0.035478
     43 H8          -8.6980     0.7830    -1.5550 hc         1 C3T       0.035478
     44 H9          -9.8200     0.8680    -0.2050 hc         1 C3T       0.035478
     45 H10         -5.5760    -0.5910     1.6320 ha         1 C3T       0.130000
     46 H11         -3.2400    -0.2290     1.0790 ha         1 C3T       0.131500
     47 H12         -6.7390     1.8610    -1.6870 ha         1 C3T       0.130000
     48 H13         -4.3980     2.2060    -2.2400 ha         1 C3T       0.131500
     49 H14         -2.1140     1.8630    -1.8680 h1         1 C3T       0.067200
     50 H15         -1.6920     1.8000    -0.1690 h1         1 C3T       0.067200
     51 H16         -1.7580    -0.5660    -1.9350 hn         1 C3T       0.315500
     52 H17         -0.1450    -2.0500    -1.7510 h1         1 C3T       0.081700
     53 H18         -1.7490    -2.6210     0.3860 hc         1 C3T       0.058700
     54 H19         -0.7090    -3.8420    -0.3350 hc         1 C3T       0.058700
     55 H20         -0.0770    -2.1170     2.1050 hc         1 C3T       0.062700
     56 H21          0.0480    -3.8700     1.9860 hc         1 C3T       0.062700
     57 H22          1.9630    -3.7750     0.6120 h1         1 C3T       0.056700
     58 H23          2.2570    -1.0960     1.9980 hc         1 C3T       0.055700
     59 H24          2.2810    -2.5820     2.8990 hc         1 C3T       0.055700
     60 H25          4.5980    -1.6600     2.1860 hc         1 C3T       0.053200
     61 H26          4.2800    -3.3660     2.0180 hc         1 C3T       0.053200
     62 H27          3.9640    -3.2350    -0.3420 hc         1 C3T       0.067700
     63 H28          6.0700    -2.3210    -1.1460 h1         1 C3T       0.028700
     64 H29          6.2820    -1.3990     0.3450 h1         1 C3T       0.028700
     65 H30          7.3840    -3.4060     0.4640 ho         1 C3T       0.408000
     66 H31          4.2660    -1.0570    -1.5510 h1         1 C3T       0.105700
     67 H32          3.5840     0.2050     1.0220 hn         1 C3T       0.314500
     68 H33          4.7330     2.2440     1.3510 h1         1 C3T       0.022700
     69 H34          2.3420     1.9720     1.1740 hc         1 C3T       0.039700
     70 H35          2.7330     3.6610     1.2830 hc         1 C3T       0.039700
     71 H36          0.9700     3.3120    -0.4080 hc         1 C3T       0.043367
     72 H37          2.4300     3.8700    -1.2260 hc         1 C3T       0.043367
     73 H38          1.9670     2.1670    -1.2850 hc         1 C3T       0.043367
     74 H39          5.8220     3.2810    -0.6740 hn         1 C3T       0.374800
     75 H41          5.8520     5.4330     0.1320 h1         1 C3T       0.027700
     76 H42          4.3120     5.2000     0.9390 h1         1 C3T       0.027700
     77 H43          5.7530     4.3950     1.5620 h1         1 C3T       0.027700
@<TRIPOS>BOND
     1     1     2 1   
     2     1    36 1   
     3     1    37 1   
     4     1    38 1   
     5     2     3 1   
     6     2     4 1   
     7     2     5 1   
     8     3    39 1   
     9     3    40 1   
    10     3    41 1   
    11     4    42 1   
    12     4    43 1   
    13     4    44 1   
    14     5     6 ar  
    15     5     8 ar  
    16     6     7 ar  
    17     6    45 1   
    18     7    10 ar  
    19     7    46 1   
    20     8     9 ar  
    21     8    47 1   
    22     9    10 ar  
    23     9    48 1   
    24    10    11 1   
    25    11    12 1   
    26    11    49 1   
    27    11    50 1   
    28    12    13 1   
    29    12    51 1   
    30    13    14 2   
    31    13    15 1   
    32    15    16 1   
    33    15    19 1   
    34    15    52 1   
    35    16    17 1   
    36    16    21 1   
    37    17    18 2   
    38    17    27 1   
    39    19    20 1   
    40    19    53 1   
    41    19    54 1   
    42    20    21 1   
    43    20    55 1   
    44    20    56 1   
    45    21    22 1   
    46    21    57 1   
    47    22    23 1   
    48    22    58 1   
    49    22    59 1   
    50    23    24 1   
    51    23    60 1   
    52    23    61 1   
    53    24    25 1   
    54    24    27 1   
    55    24    62 1   
    56    25    26 1   
    57    25    63 1   
    58    25    64 1   
    59    26    65 1   
    60    27    28 1   
    61    27    66 1   
    62    28    29 1   
    63    28    67 1   
    64    29    30 2   
    65    29    31 1   
    66    31    32 1   
    67    31    34 1   
    68    31    68 1   
    69    32    33 1   
    70    32    69 1   
    71    32    70 1   
    72    33    71 1   
    73    33    72 1   
    74    33    73 1   
    75    34    35 1   
    76    34    74 1   
    77    35    75 1   
    78    35    76 1   
    79    35    77 1   
@<TRIPOS>SUBSTRUCTURE
     1 C3T         1 TEMP              0 ****  ****    0 ROOT
