@<TRIPOS>MOLECULE
C3U
   15    15     1     0     0
SMALL
abcg2


@<TRIPOS>ATOM
      1 CL          -0.6260    50.0180     2.9110 cl         1 C3U      -0.213000
      2 CAC          0.1080    48.8100     3.9230 ca         1 C3U       0.119000
      3 CAF         -0.4710    48.5420     5.1540 ca         1 C3U      -0.101000
      4 CAH          0.0970    47.5810     5.9770 ca         1 C3U      -0.106000
      5 CAG          1.2340    46.9040     5.5610 ca         1 C3U      -0.106000
      6 CAD          1.7960    47.1900     4.3250 ca         1 C3U      -0.105000
      7 CAB          1.2500    48.1500     3.4740 ca         1 C3U      -0.064300
      8 CAE          1.8730    48.4490     2.1460 c3         1 C3U      -0.046800
      9 H1          -1.3570    49.0790     5.4660 ha         1 C3U       0.128000
     10 H2          -0.3510    47.3680     6.9390 ha         1 C3U       0.118000
     11 H3           1.6840    46.1520     6.1960 ha         1 C3U       0.116000
     12 H4           2.6840    46.6570     4.0050 ha         1 C3U       0.115000
     13 H5           2.1990    49.4880     2.0830 hc         1 C3U       0.048700
     14 H6           2.7410    47.8140     1.9750 hc         1 C3U       0.048700
     15 H7           1.1710    48.2850     1.3270 hc         1 C3U       0.048700
@<TRIPOS>BOND
     1     1     2 1   
     2     2     3 ar  
     3     2     7 ar  
     4     3     4 ar  
     5     3     9 1   
     6     4     5 ar  
     7     4    10 1   
     8     5     6 ar  
     9     5    11 1   
    10     6     7 ar  
    11     6    12 1   
    12     7     8 1   
    13     8    13 1   
    14     8    14 1   
    15     8    15 1   
@<TRIPOS>SUBSTRUCTURE
     1 C3U         1 TEMP              0 ****  ****    0 ROOT
