@<TRIPOS>MOLECULE
C3U
   15    15     1     0     0
SMALL
No Charge or Current Charge


@<TRIPOS>ATOM
      1 Cl          -0.6630    50.0720     2.8960 cl         1 C3U      -0.213000
      2 CAC          0.0900    48.8400     3.9100 ca         1 C3U       0.119000
      3 CAF         -0.4840    48.5520     5.1600 ca         1 C3U      -0.101000
      4 CAH          0.0900    47.5760     5.9930 ca         1 C3U      -0.106000
      5 CAG          1.2400    46.8880     5.5740 ca         1 C3U      -0.106000
      6 CAD          1.8160    47.1730     4.3240 ca         1 C3U      -0.105000
      7 CAB          1.2470    48.1510     3.4810 ca         1 C3U      -0.064300
      8 CAE          1.8850    48.4490     2.1280 c3         1 C3U      -0.046800
      9 H1          -1.3740    49.0860     5.4830 ha         1 C3U       0.128000
     10 H2          -0.3560    47.3550     6.9610 ha         1 C3U       0.118000
     11 H3           1.6850    46.1320     6.2170 ha         1 C3U       0.116000
     12 H4           2.7070    46.6320     4.0110 ha         1 C3U       0.115000
     13 H5           2.1990    49.4970     2.0630 hc         1 C3U       0.048700
     14 H6           2.7720    47.8290     1.9500 hc         1 C3U       0.048700
     15 H7           1.1800    48.2560     1.3100 hc         1 C3U       0.048700
@<TRIPOS>BOND
     1     1     2 1   
     2     2     3 ar  
     3     2     7 ar  
     4     3     4 ar  
     5     3     9 1   
     6     4     5 ar  
     7     4    10 1   
     8     5     6 ar  
     9     5    11 1   
    10     6     7 ar  
    11     6    12 1   
    12     7     8 1   
    13     8    13 1   
    14     8    14 1   
    15     8    15 1   
@<TRIPOS>SUBSTRUCTURE
     1 C3U         1 TEMP              0 ****  ****    0 ROOT
