@<TRIPOS>MOLECULE
C3V
   50    54     1     0     0
SMALL
bcc


@<TRIPOS>ATOM
      1 C4          -4.1920     0.2850    -0.2090 cc         1 C3V      -0.230300
      2 C5          -5.4180    -0.1450     0.3310 cc         1 C3V       0.325200
      3 C11         -0.5430    -0.3310     0.5820 ca         1 C3V      -0.151000
      4 C7          -2.8740    -0.3470    -0.0520 ca         1 C3V       0.002000
      5 C8          -2.7030    -1.6710    -0.4370 ca         1 C3V      -0.092000
      6 C9          -1.4900    -2.3400    -0.3490 ca         1 C3V      -0.119300
      7 C10         -0.3700    -1.6470     0.1360 ca         1 C3V       0.186600
      8 C12         -1.7630     0.3140     0.4850 ca         1 C3V      -0.130300
      9 C13         -1.9250     1.7010     1.0340 c3         1 C3V       0.472200
     10 N2          -5.8680     1.5510    -0.8330 na         1 C3V       0.115400
     11 C3          -4.5410     1.3890    -0.9620 cd         1 C3V      -0.133300
     12 C1          -6.6920     2.5570    -1.4590 c3         1 C3V       0.043600
     13 C17          0.9110    -3.7290     0.1280 c6         1 C3V       0.234800
     14 C18          0.0340    -4.2080    -1.0160 c6         1 C3V      -0.096400
     15 C19         -1.4020    -3.7830    -0.7660 c6         1 C3V      -0.026100
     16 C20          2.0660    -1.5660     0.3200 ca         1 C3V       0.200600
     17 C21          3.0580    -2.0020     1.2020 ca         1 C3V      -0.184000
     18 C22          4.2770    -1.3450     1.2910 ca         1 C3V      -0.042000
     19 C23          4.4920    -0.2260     0.5100 ca         1 C3V      -0.072100
     20 C24          3.5030     0.2230    -0.3660 ca         1 C3V       0.072600
     21 C25          2.3000    -0.4480    -0.4850 ca         1 C3V      -0.182000
     22 C27          5.1280     1.8250    -0.8070 c          1 C3V       0.725100
     23 F14         -2.6660     1.6550     2.1820 f          1 C3V      -0.241800
     24 F15         -0.7250     2.2420     1.3770 f          1 C3V      -0.241800
     25 N16          0.8650    -2.2760     0.2180 nh         1 C3V      -0.583400
     26 N26          3.8770     1.3510    -1.0730 n          1 C3V      -0.364000
     27 N6          -6.4170     0.6280    -0.0530 nd         1 C3V      -0.522800
     28 O28          5.6610     2.7880    -1.3040 o          1 C3V      -0.570500
     29 S29          5.9000     0.7980     0.4250 ss         1 C3V      -0.144500
     30 H1          -5.5920    -0.9850     0.9880 h4         1 C3V       0.042100
     31 H2           0.2980     0.1890     1.0170 ha         1 C3V       0.156000
     32 H3          -3.5530    -2.2050    -0.8490 ha         1 C3V       0.136000
     33 H4          -2.4140     2.3940     0.3500 h2         1 C3V       0.058700
     34 H5          -3.9470     2.0400    -1.5830 h4         1 C3V       0.170000
     35 H6          -7.4000     2.0970    -2.1450 h1         1 C3V       0.057367
     36 H7          -7.2380     3.1210    -0.7050 h1         1 C3V       0.057367
     37 H8          -6.0550     3.2390    -2.0140 h1         1 C3V       0.057367
     38 H9           0.5860    -4.1880     1.0680 h1         1 C3V       0.050700
     39 H10          1.9440    -4.0290    -0.0400 h1         1 C3V       0.050700
     40 H11          0.4040    -3.7850    -1.9530 hc         1 C3V       0.054700
     41 H12          0.1040    -5.2930    -1.1000 hc         1 C3V       0.054700
     42 H13         -1.8300    -4.4070     0.0250 hc         1 C3V       0.053200
     43 H14         -2.0190    -3.9520    -1.6510 hc         1 C3V       0.053200
     44 H15          2.8790    -2.8600     1.8370 ha         1 C3V       0.142000
     45 H16          5.0350    -1.6980     1.9760 ha         1 C3V       0.147000
     46 H17          1.5500    -0.1170    -1.1920 ha         1 C3V       0.152000
     47 H18          2.0530     2.2520    -1.5520 h1         1 C3V       0.055367
     48 H19          3.4660     2.9040    -2.3870 h1         1 C3V       0.055367
     49 H20          2.8050     1.3370    -2.8750 h1         1 C3V       0.055367
     50 C30          2.9980     1.9940    -2.0270 c3         1 C3V       0.087300
@<TRIPOS>BOND
     1     1     2 1   
     2     1     4 1   
     3     1    11 2   
     4     2    27 2   
     5     2    30 1   
     6     3     7 ar  
     7     3     8 ar  
     8     3    31 1   
     9     4     5 ar  
    10     4     8 ar  
    11     5     6 ar  
    12     5    32 1   
    13     6     7 ar  
    14     6    15 1   
    15     7    25 1   
    16     8     9 1   
    17     9    23 1   
    18     9    24 1   
    19     9    33 1   
    20    10    11 1   
    21    10    12 1   
    22    10    27 1   
    23    11    34 1   
    24    12    35 1   
    25    12    36 1   
    26    12    37 1   
    27    13    14 1   
    28    13    25 1   
    29    13    38 1   
    30    13    39 1   
    31    14    15 1   
    32    14    40 1   
    33    14    41 1   
    34    15    42 1   
    35    15    43 1   
    36    16    17 ar  
    37    16    21 ar  
    38    16    25 1   
    39    17    18 ar  
    40    17    44 1   
    41    18    19 ar  
    42    18    45 1   
    43    19    20 ar  
    44    19    29 1   
    45    20    21 ar  
    46    20    26 1   
    47    21    46 1   
    48    22    26 1   
    49    22    28 2   
    50    22    29 1   
    51    26    50 1   
    52    47    50 1   
    53    48    50 1   
    54    49    50 1   
@<TRIPOS>SUBSTRUCTURE
     1 C3V         1 TEMP              0 ****  ****    0 ROOT
