@<TRIPOS>MOLECULE
C3V
   50    54     1     0     0
SMALL
No Charge or Current Charge


@<TRIPOS>ATOM
      1 C4          -4.3070     0.2030    -0.2230 cc         1 C3V      -0.165000
      2 C5          -5.5340    -0.4750    -0.3600 cc         1 C3V       0.259900
      3 C11         -0.5880    -0.2940     0.5950 ca         1 C3V      -0.133000
      4 C7          -2.9530    -0.3560    -0.0320 ca         1 C3V       0.002000
      5 C8          -2.7730    -1.7110    -0.3810 ca         1 C3V      -0.074000
      6 C9          -1.5250    -2.3480    -0.2790 ca         1 C3V      -0.119300
      7 C10         -0.4040    -1.6310     0.1940 ca         1 C3V       0.325000
      8 C12         -1.8410     0.3630     0.4990 ca         1 C3V      -0.130300
      9 C13         -1.9670     1.8000     1.0440 c3         1 C3V       0.229600
     10 N2          -5.9470     1.5450    -0.7860 na         1 C3V       0.136800
     11 C3          -4.5670     1.5030    -0.5610 cd         1 C3V      -0.166000
     12 C1          -6.7320     2.7300    -1.1590 c3         1 C3V       0.072900
     13 C17          0.9600    -3.7390     0.2010 c6         1 C3V       0.234800
     14 C18          0.0430    -4.2490    -0.9270 c6         1 C3V      -0.096400
     15 C19         -1.4150    -3.8240    -0.6740 c6         1 C3V      -0.026100
     16 C20          2.0860    -1.5350     0.3830 ca         1 C3V       0.339000
     17 C21          3.0600    -1.8810     1.3470 ca         1 C3V      -0.166000
     18 C22          4.2820    -1.1850     1.4190 ca         1 C3V      -0.024000
     19 C23          4.5060    -0.1350     0.5190 ca         1 C3V      -0.199000
     20 C24          3.5500     0.2250    -0.4170 ca         1 C3V       0.072600
     21 C25          2.3450    -0.4840    -0.5190 ca         1 C3V      -0.164000
     22 C27          5.2860     1.7700    -1.0020 c          1 C3V       0.582600
     23 F14         -2.9630     1.9020     1.9540 f          1 C3V      -0.120500
     24 F15         -0.8490     2.2350     1.6720 f          1 C3V      -0.120500
     25 N16          0.8740    -2.2580     0.3070 nh         1 C3V      -0.860200
     26 N26          3.9940     1.2740    -1.2620 n          1 C3V      -0.297000
     27 N6          -6.5510     0.3020    -0.6720 nd         1 C3V      -0.522800
     28 O28          5.8320     2.6850    -1.6080 o          1 C3V      -0.495000
     29 S29          5.9960     0.8420     0.4120 ss         1 C3V      -0.017600
     30 H1          -5.7160    -1.5340    -0.2360 h4         1 C3V       0.042100
     31 H2           0.2610     0.2340     1.0130 ha         1 C3V       0.138000
     32 H3          -3.6110    -2.2840    -0.7670 ha         1 C3V       0.118000
     33 H4          -2.1620     2.4960     0.2250 h2         1 C3V       0.058700
     34 H5          -3.9360     2.3680    -0.7020 h4         1 C3V       0.152000
     35 H6          -6.9990     2.6710    -2.2210 h1         1 C3V       0.057367
     36 H7          -7.6450     2.7720    -0.5540 h1         1 C3V       0.057367
     37 H8          -6.1400     3.6360    -0.9830 h1         1 C3V       0.057367
     38 H9           0.6740    -4.2070     1.1550 h1         1 C3V       0.050700
     39 H10          1.9900    -4.0550    -0.0230 h1         1 C3V       0.050700
     40 H11          0.3870    -3.8400    -1.8870 hc         1 C3V       0.054700
     41 H12          0.1120    -5.3420    -1.0060 hc         1 C3V       0.054700
     42 H13         -1.8410    -4.4400     0.1300 hc         1 C3V       0.053200
     43 H14         -2.0170    -4.0260    -1.5710 hc         1 C3V       0.053200
     44 H15          2.8660    -2.6920     2.0420 ha         1 C3V       0.124000
     45 H16          5.0360    -1.4610     2.1540 ha         1 C3V       0.129000
     46 H17          1.6150    -0.2340    -1.2820 ha         1 C3V       0.134000
     47 H18          2.1700     2.1840    -1.8270 h1         1 C3V       0.055367
     48 H19          3.5880     2.7560    -2.7430 h1         1 C3V       0.055367
     49 H20          2.9100     1.1380    -3.0730 h1         1 C3V       0.055367
     50 C30          3.1160     1.8760    -2.2880 c3         1 C3V       0.087300
@<TRIPOS>BOND
     1     1     2 1   
     2     1     4 1   
     3     1    11 2   
     4     2    27 2   
     5     2    30 1   
     6     3     7 ar  
     7     3     8 ar  
     8     3    31 1   
     9     4     5 ar  
    10     4     8 ar  
    11     5     6 ar  
    12     5    32 1   
    13     6     7 ar  
    14     6    15 1   
    15     7    25 1   
    16     8     9 1   
    17     9    23 1   
    18     9    24 1   
    19     9    33 1   
    20    10    11 1   
    21    10    12 1   
    22    10    27 1   
    23    11    34 1   
    24    12    35 1   
    25    12    36 1   
    26    12    37 1   
    27    13    14 1   
    28    13    25 1   
    29    13    38 1   
    30    13    39 1   
    31    14    15 1   
    32    14    40 1   
    33    14    41 1   
    34    15    42 1   
    35    15    43 1   
    36    16    17 ar  
    37    16    21 ar  
    38    16    25 1   
    39    17    18 ar  
    40    17    44 1   
    41    18    19 ar  
    42    18    45 1   
    43    19    20 ar  
    44    19    29 1   
    45    20    21 ar  
    46    20    26 1   
    47    21    46 1   
    48    22    26 1   
    49    22    28 2   
    50    22    29 1   
    51    26    50 1   
    52    47    50 1   
    53    48    50 1   
    54    49    50 1   
@<TRIPOS>SUBSTRUCTURE
     1 C3V         1 TEMP              0 ****  ****    0 ROOT
