@<TRIPOS>MOLECULE
C3W
   29    29     1     0     0
SMALL
No Charge or Current Charge


@<TRIPOS>ATOM
      1 C3          -3.2480    -1.2810     0.1370 ca         1 C3W      -0.072000
      2 C2          -2.2190    -0.4260     0.5820 ca         1 C3W      -0.113300
      3 C8           1.1390    -0.1850     0.0540 c          1 C3W       0.616100
      4 C6          -3.5360     1.5040    -0.1230 ca         1 C3W      -0.159500
      5 C7          -2.3670     0.9690     0.4480 ca         1 C3W      -0.072000
      6 O1           3.6210    -2.0820    -0.0650 o          1 C3W      -0.538100
      7 C1          -0.9500    -1.0050     1.1960 c3         1 C3W       0.143300
      8 C5          -4.5550     0.6460    -0.5620 ca         1 C3W       0.161000
      9 C9           2.2380    -0.3540    -0.9860 c3         1 C3W      -0.276400
     10 C10          3.4660    -0.8710    -0.2370 c          1 C3W       0.440100
     11 C4          -4.4150    -0.7440    -0.4340 ca         1 C3W      -0.159500
     12 O3           4.8000     1.1880    -0.3730 o          1 C3W      -0.694000
     13 C11          4.5120     0.2260     0.3350 c          1 C3W       0.652000
     14 O2           5.0080     0.0380     1.4440 o          1 C3W      -0.694000
     15 O            1.1420     0.8160     0.7570 o          1 C3W      -0.606100
     16 N            0.1400    -1.1760     0.2070 n          1 C3W      -0.423800
     17 C            0.1040    -2.4040    -0.6190 c3         1 C3W       0.101300
     18 F           -5.6760     1.1610    -1.1120 f          1 C3W      -0.191000
     19 H1          -3.1430    -2.3600     0.2330 ha         1 C3W       0.127000
     20 H2          -3.6500     2.5800    -0.2270 ha         1 C3W       0.125500
     21 H3          -1.5780     1.6380     0.7860 ha         1 C3W       0.127000
     22 H4          -0.6170    -0.3590     2.0180 h1         1 C3W       0.060700
     23 H5          -1.1790    -1.9800     1.6470 h1         1 C3W       0.060700
     24 H6           1.9680    -1.0760    -1.7610 hc         1 C3W       0.081200
     25 H7           2.4580     0.6410    -1.3860 hc         1 C3W       0.081200
     26 H8          -5.2090    -1.4030    -0.7770 ha         1 C3W       0.125500
     27 H10          1.0600    -2.9360    -0.5420 h1         1 C3W       0.032700
     28 H11         -0.6950    -3.0740    -0.2780 h1         1 C3W       0.032700
     29 H12         -0.0870    -2.1390    -1.6670 h1         1 C3W       0.032700
@<TRIPOS>BOND
     1     1     2 ar  
     2     1    11 ar  
     3     1    19 1   
     4     2     5 ar  
     5     2     7 1   
     6     3     9 1   
     7     3    15 2   
     8     3    16 1   
     9     4     5 ar  
    10     4     8 ar  
    11     4    20 1   
    12     5    21 1   
    13     6    10 2   
    14     7    16 1   
    15     7    22 1   
    16     7    23 1   
    17     8    11 ar  
    18     8    18 1   
    19     9    10 1   
    20     9    24 1   
    21     9    25 1   
    22    10    13 1   
    23    11    26 1   
    24    12    13 1   
    25    13    14 1   
    26    16    17 1   
    27    17    27 1   
    28    17    28 1   
    29    17    29 1   
@<TRIPOS>SUBSTRUCTURE
     1 C3W         1 TEMP              0 ****  ****    0 ROOT
