@<TRIPOS>MOLECULE
C3W
   29    29     1     0     0
SMALL
abcg2


@<TRIPOS>ATOM
      1 C3          -3.4050    -1.3320     0.0040 ca         1 C3W      -0.072000
      2 C2          -2.3020    -0.6660     0.5240 ca         1 C3W      -0.113300
      3 C8           1.0550    -0.4850     0.5710 c          1 C3W       0.616100
      4 C6          -3.3690     1.4430     0.0000 ca         1 C3W      -0.159500
      5 C7          -2.3000     0.7290     0.5160 ca         1 C3W      -0.072000
      6 O1           3.7300    -0.7060     1.5180 o          1 C3W      -0.538100
      7 C1          -1.1260    -1.4290     1.0790 c3         1 C3W       0.143300
      8 C5          -4.4470     0.7430    -0.5100 ca         1 C3W       0.161000
      9 C9           2.2630    -0.4530    -0.3400 c3         1 C3W      -0.276400
     10 C10          3.5670    -0.2770     0.4040 c          1 C3W       0.440100
     11 C4          -4.4890    -0.6350    -0.5180 ca         1 C3W      -0.159500
     12 O3           4.4590     0.7970    -1.5180 o          1 C3W      -0.694000
     13 C11          4.7330     0.4080    -0.3700 c          1 C3W       0.652000
     14 O2           5.8050     0.4840     0.2430 o          1 C3W      -0.694000
     15 O            0.9940     0.2590     1.5410 o          1 C3W      -0.606100
     16 N            0.0570    -1.3310     0.2390 n          1 C3W      -0.423800
     17 C            0.0510    -2.1090    -0.9880 c3         1 C3W       0.101300
     18 F           -5.4870     1.4300    -1.0130 f          1 C3W      -0.191000
     19 H1          -3.4310    -2.4150     0.0050 ha         1 C3W       0.127000
     20 H2          -3.3660     2.5260    -0.0010 ha         1 C3W       0.125500
     21 H3          -1.4540     1.2660     0.9250 ha         1 C3W       0.127000
     22 H4          -0.8770    -1.0670     2.0750 h1         1 C3W       0.060700
     23 H5          -1.3850    -2.4850     1.1820 h1         1 C3W       0.060700
     24 H6           2.3800    -1.3680    -0.9260 hc         1 C3W       0.081200
     25 H7           2.1340     0.3450    -1.0740 hc         1 C3W       0.081200
     26 H8          -5.3460    -1.1580    -0.9220 ha         1 C3W       0.125500
     27 H10          0.7320    -2.9610    -0.9390 h1         1 C3W       0.032700
     28 H11         -0.9520    -2.4960    -1.1550 h1         1 C3W       0.032700
     29 H12          0.3070    -1.5040    -1.8560 h1         1 C3W       0.032700
@<TRIPOS>BOND
     1     1     2 ar  
     2     1    11 ar  
     3     1    19 1   
     4     2     5 ar  
     5     2     7 1   
     6     3     9 1   
     7     3    15 2   
     8     3    16 1   
     9     4     5 ar  
    10     4     8 ar  
    11     4    20 1   
    12     5    21 1   
    13     6    10 2   
    14     7    16 1   
    15     7    22 1   
    16     7    23 1   
    17     8    11 ar  
    18     8    18 1   
    19     9    10 1   
    20     9    24 1   
    21     9    25 1   
    22    10    13 1   
    23    11    26 1   
    24    12    13 1   
    25    13    14 1   
    26    16    17 1   
    27    17    27 1   
    28    17    28 1   
    29    17    29 1   
@<TRIPOS>SUBSTRUCTURE
     1 C3W         1 TEMP              0 ****  ****    0 ROOT
