@<TRIPOS>MOLECULE
C3X
   28    29     1     0     0
SMALL
abcg2


@<TRIPOS>ATOM
      1 C1          81.8220    22.7280    10.8680 c6         1 C3X       0.397300
      2 C2          81.7240    23.8110    11.9380 c6         1 C3X       0.155300
      3 C3          83.1280    24.2150    12.3780 c6         1 C3X       0.133300
      4 C4          83.9340    22.9930    12.7920 c6         1 C3X       0.100300
      5 C5          83.8890    21.9640    11.6650 c6         1 C3X       0.135600
      6 O1          80.5520    22.3000    10.5550 os         1 C3X      -0.426000
      7 O2          81.0230    24.8960    11.3900 oh         1 C3X      -0.705000
      8 O3          82.9810    25.1480    13.4230 oh         1 C3X      -0.664000
      9 O4          85.2510    23.4170    13.0530 oh         1 C3X      -0.721000
     10 O5          82.5540    21.6320    11.3550 os         1 C3X      -0.477000
     11 C6          80.4510    21.5370     9.3680 c3         1 C3X       0.169600
     12 C7          78.9930    21.2390     9.1660 cx         1 C3X       0.086300
     13 C8          78.1620    22.0880     8.3210 cx         1 C3X       0.082600
     14 O           78.6290    20.8260     7.8650 op         1 C3X      -0.440000
     15 H1          82.3310    23.1420     9.9760 h2         1 C3X       0.033700
     16 H2          81.1950    23.3860    12.8060 h1         1 C3X       0.068700
     17 H3          83.6330    24.6760    11.5130 h1         1 C3X       0.051700
     18 H4          83.4720    22.5540    13.6880 h1         1 C3X       0.060700
     19 H51         84.4160    22.3590    10.7840 h1         1 C3X       0.056200
     20 H52         84.3900    21.0420    11.9640 h1         1 C3X       0.056200
     21 HO2         81.0690    25.6270    12.0160 ho         1 C3X       0.523000
     22 HO3         83.8390    25.5460    13.6000 ho         1 C3X       0.464000
     23 HO4         85.7110    22.7190    13.5290 ho         1 C3X       0.513000
     24 H1'1        80.8450    22.0950     8.5090 h1         1 C3X       0.045200
     25 H1'2        81.0150    20.6010     9.4430 h1         1 C3X       0.045200
     26 H6          78.5160    20.6860     9.9760 h1         1 C3X       0.098700
     27 H3'1        77.0950    22.1590     8.5110 h1         1 C3X       0.078700
     28 H3'2        78.6030    22.9580     7.8410 h1         1 C3X       0.078700
@<TRIPOS>BOND
     1     1     2 1   
     2     1     6 1   
     3     1    10 1   
     4     1    15 1   
     5     2     3 1   
     6     2     7 1   
     7     2    16 1   
     8     3     4 1   
     9     3     8 1   
    10     3    17 1   
    11     4     5 1   
    12     4     9 1   
    13     4    18 1   
    14     5    10 1   
    15     5    19 1   
    16     5    20 1   
    17     6    11 1   
    18     7    21 1   
    19     8    22 1   
    20     9    23 1   
    21    11    12 1   
    22    11    24 1   
    23    11    25 1   
    24    12    13 1   
    25    12    14 1   
    26    12    26 1   
    27    13    14 1   
    28    13    27 1   
    29    13    28 1   
@<TRIPOS>SUBSTRUCTURE
     1 C3X         1 TEMP              0 ****  ****    0 ROOT
