@<TRIPOS>MOLECULE
C3X
   28    29     1     0     0
SMALL
No Charge or Current Charge


@<TRIPOS>ATOM
      1 C1          81.8150    22.7610    10.7630 c6         1 C3X       0.397300
      2 C2          81.6970    23.9210    11.8130 c6         1 C3X       0.155300
      3 C3          83.1270    24.3170    12.2810 c6         1 C3X       0.133300
      4 C4          83.8850    23.0710    12.8280 c6         1 C3X       0.100300
      5 C5          83.8780    21.9530    11.7430 c6         1 C3X       0.135600
      6 O1          80.5150    22.3100    10.3410 os         1 C3X      -0.426000
      7 O2          81.0060    25.0890    11.3090 oh         1 C3X      -0.705000
      8 O3          83.0730    25.3450    13.2870 oh         1 C3X      -0.664000
      9 O4          85.2280    23.4360    13.2100 oh         1 C3X      -0.721000
     10 O5          82.5200    21.6460    11.3530 os         1 C3X      -0.477000
     11 C6          80.4950    21.3470     9.2710 c3         1 C3X       0.169600
     12 C7          79.0380    21.0390     8.9380 cx         1 C3X       0.086300
     13 C8          78.0680    22.1570     8.6710 cx         1 C3X       0.082600
     14 O           78.5860    21.3430     7.5940 op         1 C3X      -0.440000
     15 H1          82.3720    23.1240     9.8860 h2         1 C3X       0.033700
     16 H2          81.1550    23.5190    12.6830 h1         1 C3X       0.068700
     17 H3          83.6810    24.6890    11.4060 h1         1 C3X       0.051700
     18 H4          83.3370    22.6920    13.7050 h1         1 C3X       0.060700
     19 H51         84.4490    22.2710    10.8580 h1         1 C3X       0.056200
     20 H52         84.3440    21.0400    12.1410 h1         1 C3X       0.056200
     21 HO2         81.2730    25.8180    11.9200 ho         1 C3X       0.523000
     22 HO3         83.9590    25.3180    13.7190 ho         1 C3X       0.464000
     23 HO4         85.6300    22.6570    13.6660 ho         1 C3X       0.513000
     24 H1'1        80.9970    21.7500     8.3820 h1         1 C3X       0.045200
     25 H1'2        81.0050    20.4200     9.5640 h1         1 C3X       0.045200
     26 H6          78.6530    20.1120     9.3650 h1         1 C3X       0.098700
     27 H3'1        77.0140    22.0090     8.9030 h1         1 C3X       0.078700
     28 H3'2        78.4250    23.1870     8.6910 h1         1 C3X       0.078700
@<TRIPOS>BOND
     1     1     2 1   
     2     1     6 1   
     3     1    10 1   
     4     1    15 1   
     5     2     3 1   
     6     2     7 1   
     7     2    16 1   
     8     3     4 1   
     9     3     8 1   
    10     3    17 1   
    11     4     5 1   
    12     4     9 1   
    13     4    18 1   
    14     5    10 1   
    15     5    19 1   
    16     5    20 1   
    17     6    11 1   
    18     7    21 1   
    19     8    22 1   
    20     9    23 1   
    21    11    12 1   
    22    11    24 1   
    23    11    25 1   
    24    12    13 1   
    25    12    14 1   
    26    12    26 1   
    27    13    14 1   
    28    13    27 1   
    29    13    28 1   
@<TRIPOS>SUBSTRUCTURE
     1 C3X         1 TEMP              0 ****  ****    0 ROOT
