@<TRIPOS>MOLECULE
C3Y
   23    22     1     0     0
SMALL
bcc


@<TRIPOS>ATOM
      1 N           32.2140    39.8050    22.7440 n8         1 C3Y      -0.900800
      2 CA          33.5670    40.2680    23.0620 c3         1 C3Y       0.028500
      3 C           33.5430    41.3580    24.1530 c          1 C3Y       0.916600
      4 O           33.4990    40.9660    25.3260 o          1 C3Y      -0.821300
      5 CB          34.2450    40.6780    21.7630 c3         1 C3Y       0.083700
      6 SG          35.9470    41.2420    22.0350 ss         1 C3Y      -0.548200
      7 C1          36.9050    43.7260    22.6070 c3         1 C3Y      -0.114100
      8 O2          34.6340    43.6080    21.7820 oh         1 C3Y      -0.659800
      9 N1          36.3370    43.3790    20.3100 n7         1 C3Y      -0.571700
     10 O3          35.6130    42.6310    19.3760 oh         1 C3Y      -0.427300
     11 C2          35.8950    43.0990    21.6510 c3         1 C3Y       0.561100
     12 OXT         33.4790    42.5680    23.7920 o          1 C3Y      -0.821300
     13 HN1         31.7780    39.4360    23.5800 hn         1 C3Y       0.331800
     14 HN2         31.6470    40.5970    22.4620 hn         1 C3Y       0.331800
     15 HA          34.1080    39.4080    23.4670 h1         1 C3Y       0.057700
     16 HBC1        34.2730    39.8240    21.0850 h1         1 C3Y       0.061200
     17 HBC2        33.6900    41.4680    21.2560 h1         1 C3Y       0.061200
     18 H1C1        37.8880    43.2590    22.5310 hc         1 C3Y       0.047367
     19 H1C2        37.0140    44.7900    22.3910 hc         1 C3Y       0.047367
     20 H1C3        36.5590    43.6150    23.6330 hc         1 C3Y       0.047367
     21 H1          37.3000    43.0770    20.2050 hn         1 C3Y       0.361800
     22 H3          35.0720    43.2840    18.9200 ho         1 C3Y       0.408000
     23 H5          34.1710    43.1940    22.5790 ho         1 C3Y       0.520000
@<TRIPOS>BOND
     1     1     2 1   
     2     1    13 1   
     3     1    14 1   
     4     2     3 1   
     5     2     5 1   
     6     2    15 1   
     7     3     4 1   
     8     3    12 1   
     9     5     6 1   
    10     5    16 1   
    11     5    17 1   
    12     6    11 1   
    13     7    11 1   
    14     7    18 1   
    15     7    19 1   
    16     7    20 1   
    17     8    11 1   
    18     8    23 1   
    19     9    10 1   
    20     9    11 1   
    21     9    21 1   
    22    10    22 1   
@<TRIPOS>SUBSTRUCTURE
     1 C3Y         1 TEMP              0 ****  ****    0 ROOT
