@<TRIPOS>MOLECULE
C3Y
   23    22     1     0     0
SMALL
No Charge or Current Charge


@<TRIPOS>ATOM
      1 N           32.1970    39.6050    22.6320 n8         1 C3Y      -1.011200
      2 CA          33.5060    40.2580    23.0320 c3         1 C3Y       0.028500
      3 C           33.4070    41.3480    24.1750 c          1 C3Y       0.706000
      4 O           33.2210    40.9590    25.3200 o          1 C3Y      -0.716000
      5 CB          34.2620    40.7900    21.7820 c3         1 C3Y       0.131600
      6 SG          35.9850    41.3560    22.2190 ss         1 C3Y      -0.644000
      7 C1          37.0490    43.8630    22.5720 c3         1 C3Y      -0.114100
      8 O2          34.7420    43.7350    21.9650 oh         1 C3Y      -0.722000
      9 N1          36.3280    43.1880    20.3250 n7         1 C3Y      -0.626900
     10 O3          35.2580    42.6400    19.4200 oh         1 C3Y      -0.466300
     11 C2          35.9820    43.1260    21.7470 c3         1 C3Y       0.632200
     12 OXT         33.4700    42.5350    23.8740 o          1 C3Y      -0.716000
     13 HN1         31.7550    39.2090    23.4730 hn         1 C3Y       0.387000
     14 HN2         31.5320    40.3330    22.3400 hn         1 C3Y       0.387000
     15 HA          34.1350    39.4600    23.4520 h1         1 C3Y       0.057700
     16 HBC1        34.3490    39.9800    21.0460 h1         1 C3Y       0.061200
     17 HBC2        33.6820    41.5940    21.3120 h1         1 C3Y       0.061200
     18 H1C1        38.0390    43.4200    22.4140 hc         1 C3Y       0.047367
     19 H1C2        37.0980    44.9210    22.2890 hc         1 C3Y       0.047367
     20 H1C3        36.8170    43.8040    23.6420 hc         1 C3Y       0.047367
     21 H1          37.1480    42.5840    20.1930 hn         1 C3Y       0.417000
     22 H3          35.0730    43.3540    18.7620 ho         1 C3Y       0.447000
     23 H5          34.3450    43.2190    22.7250 ho         1 C3Y       0.559000
@<TRIPOS>BOND
     1     1     2 1   
     2     1    13 1   
     3     1    14 1   
     4     2     3 1   
     5     2     5 1   
     6     2    15 1   
     7     3     4 1   
     8     3    12 1   
     9     5     6 1   
    10     5    16 1   
    11     5    17 1   
    12     6    11 1   
    13     7    11 1   
    14     7    18 1   
    15     7    19 1   
    16     7    20 1   
    17     8    11 1   
    18     8    23 1   
    19     9    10 1   
    20     9    11 1   
    21     9    21 1   
    22    10    22 1   
@<TRIPOS>SUBSTRUCTURE
     1 C3Y         1 TEMP              0 ****  ****    0 ROOT
