@<TRIPOS>MOLECULE
C3Z
   46    50     1     0     0
SMALL
No Charge or Current Charge


@<TRIPOS>ATOM
      1 C1           0.4420     2.3320     1.2780 ca         1 C3Z      -0.211000
      2 C2           1.0710     1.0700     1.2080 ca         1 C3Z       0.174100
      3 C3           0.4820    -0.0040     0.4720 ca         1 C3Z      -0.075000
      4 C7           1.3920    -3.5360    -0.0580 cc         1 C3Z       0.237900
      5 C10          3.3950    -0.7710    -0.1070 ca         1 C3Z       0.026800
      6 C11          3.2140     0.0940    -1.2090 ca         1 C3Z      -0.101000
      7 C12          4.1920     1.0540    -1.5260 ca         1 C3Z      -0.105000
      8 C13          5.3630     1.1450    -0.7550 ca         1 C3Z      -0.114000
      9 C14          5.5600     0.2740     0.3290 ca         1 C3Z      -0.105000
     10 C15          4.5830    -0.6850     0.6480 ca         1 C3Z      -0.101000
     11 C19         -2.5880     1.9860    -0.5550 cc         1 C3Z      -0.070300
     12 C22         -3.6390     1.2740    -1.3730 c3         1 C3Z       0.032100
     13 C24         -4.5140    -0.1740     0.5270 ca         1 C3Z      -0.100000
     14 C27         -4.8620    -1.4220     1.0710 ca         1 C3Z      -0.106500
     15 C4          -0.7750     0.2140    -0.1390 ca         1 C3Z       0.010000
     16 C5           1.0930    -1.3520     0.3450 cd         1 C3Z      -0.068000
     17 C6           0.4320    -2.5260     0.1180 cc         1 C3Z      -0.222000
     18 N8           2.6330    -3.1010    -0.0490 nd         1 C3Z      -0.514800
     19 N9           2.4440    -1.7490     0.2020 na         1 C3Z       0.235000
     20 O16          2.2010     0.8850     1.9490 oh         1 C3Z      -0.523100
     21 C17         -0.7840     2.5220     0.6340 ca         1 C3Z      -0.019000
     22 C18         -1.3620     1.4810    -0.0420 ca         1 C3Z      -0.176000
     23 N20         -2.6600     3.3140    -0.1470 na         1 C3Z       0.010500
     24 N21         -1.5420     3.6950     0.6090 nc         1 C3Z      -0.291400
     25 C23         -4.0330    -0.0810    -0.7940 ca         1 C3Z      -0.086300
     26 C25         -4.7320    -2.5880     0.2970 ca         1 C3Z      -0.104000
     27 C26         -4.2560    -2.5030    -1.0220 ca         1 C3Z      -0.106500
     28 C28         -3.9090    -1.2540    -1.5670 ca         1 C3Z      -0.100000
     29 H1           0.8860     3.1470     1.8430 ha         1 C3Z       0.129000
     30 H2           1.2090    -4.5870    -0.2370 h4         1 C3Z       0.035100
     31 H3           2.3150     0.0230    -1.8170 ha         1 C3Z       0.131000
     32 H4           4.0430     1.7230    -2.3710 ha         1 C3Z       0.115500
     33 H5           6.1200     1.8870    -1.0020 ha         1 C3Z       0.114000
     34 H6           6.4710     0.3400     0.9210 ha         1 C3Z       0.115500
     35 H7           4.7410    -1.3600     1.4860 ha         1 C3Z       0.131000
     36 H8          -4.5340     1.9030    -1.4540 hc         1 C3Z       0.061700
     37 H9          -3.2660     1.1570    -2.3980 hc         1 C3Z       0.061700
     38 H10         -4.6130     0.7230     1.1350 ha         1 C3Z       0.111500
     39 H11         -5.2300    -1.4860     2.0930 ha         1 C3Z       0.115500
     40 H12         -1.2690    -0.5730    -0.7010 ha         1 C3Z       0.128000
     41 H13         -0.6400    -2.6880     0.0980 ha         1 C3Z       0.146000
     42 H14          2.4240     1.7330     2.3840 ho         1 C3Z       0.466000
     43 H15         -3.4100     3.9700    -0.3430 hn         1 C3Z       0.368000
     44 H16         -5.0010    -3.5540     0.7180 ha         1 C3Z       0.115000
     45 H17         -4.1560    -3.4040    -1.6220 ha         1 C3Z       0.115500
     46 H18         -3.5380    -1.2020    -2.5880 ha         1 C3Z       0.111500
@<TRIPOS>BOND
     1     1     2 ar  
     2     1    21 ar  
     3     1    29 1   
     4     2     3 ar  
     5     2    20 1   
     6     3    15 ar  
     7     3    16 1   
     8     4    17 1   
     9     4    18 2   
    10     4    30 1   
    11     5     6 ar  
    12     5    10 ar  
    13     5    19 1   
    14     6     7 ar  
    15     6    31 1   
    16     7     8 ar  
    17     7    32 1   
    18     8     9 ar  
    19     8    33 1   
    20     9    10 ar  
    21     9    34 1   
    22    10    35 1   
    23    11    12 1   
    24    11    22 2   
    25    11    23 1   
    26    12    25 1   
    27    12    36 1   
    28    12    37 1   
    29    13    14 ar  
    30    13    25 ar  
    31    13    38 1   
    32    14    26 ar  
    33    14    39 1   
    34    15    22 ar  
    35    15    40 1   
    36    16    17 2   
    37    16    19 1   
    38    17    41 1   
    39    18    19 1   
    40    20    42 1   
    41    21    22 ar  
    42    21    24 2   
    43    23    24 1   
    44    23    43 1   
    45    25    28 ar  
    46    26    27 ar  
    47    26    44 1   
    48    27    28 ar  
    49    27    45 1   
    50    28    46 1   
@<TRIPOS>SUBSTRUCTURE
     1 C3Z         1 TEMP              0 ****  ****    0 ROOT
