@<TRIPOS>MOLECULE
C3Z
   46    50     1     0     0
SMALL
bcc


@<TRIPOS>ATOM
      1 C1           0.4240     2.1670     1.5260 ca         1 C3Z      -0.229000
      2 C2           1.0380     0.9460     1.4490 ca         1 C3Z       0.174100
      3 C3           0.5140    -0.1160     0.6360 ca         1 C3Z      -0.075000
      4 C7           1.8250    -3.5190     0.7130 cc         1 C3Z       0.303200
      5 C10          3.3940    -0.6170    -0.3020 ca         1 C3Z       0.026800
      6 C11          2.9800     0.3160    -1.2440 ca         1 C3Z      -0.119000
      7 C12          3.8820     1.2640    -1.7070 ca         1 C3Z      -0.123000
      8 C13          5.1920     1.2700    -1.2500 ca         1 C3Z      -0.132000
      9 C14          5.6010     0.3190    -0.3220 ca         1 C3Z      -0.123000
     10 C15          4.7040    -0.6220     0.1590 ca         1 C3Z      -0.119000
     11 C19         -2.4710     1.8350    -0.5520 cc         1 C3Z      -0.070300
     12 C22         -3.4820     1.2480    -1.4750 c3         1 C3Z       0.032100
     13 C24         -4.8410    -0.0350     0.2130 ca         1 C3Z      -0.118000
     14 C27         -5.3580    -1.2160     0.7220 ca         1 C3Z      -0.124500
     15 C4          -0.6530     0.0590    -0.0600 ca         1 C3Z      -0.008000
     16 C5           1.2020    -1.4100     0.5860 cd         1 C3Z      -0.017300
     17 C6           0.7380    -2.6590     0.9320 cc         1 C3Z      -0.305300
     18 N8           2.8750    -2.8620     0.2650 nd         1 C3Z      -0.514800
     19 N9           2.4890    -1.5870     0.1840 na         1 C3Z       0.184300
     20 O16          2.1540     0.6410     2.1340 oh         1 C3Z      -0.484100
     21 C17         -0.7710     2.3570     0.7940 ca         1 C3Z      -0.019000
     22 C18         -1.3100     1.3000     0.0110 ca         1 C3Z      -0.176000
     23 N20         -2.5290     3.0830    -0.0860 na         1 C3Z       0.060800
     24 N21         -1.5330     3.4470     0.7240 nc         1 C3Z      -0.291400
     25 C23         -4.0550    -0.0420    -0.9380 ca         1 C3Z      -0.086300
     26 C25         -5.0940    -2.4250     0.0870 ca         1 C3Z      -0.122000
     27 C26         -4.3140    -2.4400    -1.0590 ca         1 C3Z      -0.124500
     28 C28         -3.7990    -1.2540    -1.5680 ca         1 C3Z      -0.118000
     29 H1           0.8290     2.9590     2.1450 ha         1 C3Z       0.147000
     30 H2           1.8770    -4.5870     0.8640 h4         1 C3Z       0.035100
     31 H3           1.9700     0.2980    -1.6280 ha         1 C3Z       0.149000
     32 H4           3.5580     1.9910    -2.4400 ha         1 C3Z       0.133500
     33 H5           5.8930     2.0070    -1.6180 ha         1 C3Z       0.132000
     34 H6           6.6210     0.3160     0.0380 ha         1 C3Z       0.133500
     35 H7           5.0180    -1.3540     0.8900 ha         1 C3Z       0.149000
     36 H8          -4.2820     1.9740    -1.6430 hc         1 C3Z       0.061700
     37 H9          -3.0190     1.0660    -2.4480 hc         1 C3Z       0.061700
     38 H10         -5.0480     0.9030     0.7150 ha         1 C3Z       0.129500
     39 H11         -5.9710    -1.1950     1.6150 ha         1 C3Z       0.133500
     40 H12         -1.0450    -0.7460    -0.6670 ha         1 C3Z       0.146000
     41 H13         -0.2400    -2.9020     1.3140 ha         1 C3Z       0.164000
     42 H14          2.4700     1.4090     2.6230 ho         1 C3Z       0.427000
     43 H15         -3.2500     3.7570    -0.3020 hn         1 C3Z       0.317700
     44 H16         -5.4960    -3.3480     0.4850 ha         1 C3Z       0.133000
     45 H17         -4.1040    -3.3760    -1.5610 ha         1 C3Z       0.133500
     46 H18         -3.1880    -1.2750    -2.4630 ha         1 C3Z       0.129500
@<TRIPOS>BOND
     1     1     2 ar  
     2     1    21 ar  
     3     1    29 1   
     4     2     3 ar  
     5     2    20 1   
     6     3    15 ar  
     7     3    16 1   
     8     4    17 1   
     9     4    18 2   
    10     4    30 1   
    11     5     6 ar  
    12     5    10 ar  
    13     5    19 1   
    14     6     7 ar  
    15     6    31 1   
    16     7     8 ar  
    17     7    32 1   
    18     8     9 ar  
    19     8    33 1   
    20     9    10 ar  
    21     9    34 1   
    22    10    35 1   
    23    11    12 1   
    24    11    22 2   
    25    11    23 1   
    26    12    25 1   
    27    12    36 1   
    28    12    37 1   
    29    13    14 ar  
    30    13    25 ar  
    31    13    38 1   
    32    14    26 ar  
    33    14    39 1   
    34    15    22 ar  
    35    15    40 1   
    36    16    17 2   
    37    16    19 1   
    38    17    41 1   
    39    18    19 1   
    40    20    42 1   
    41    21    22 ar  
    42    21    24 2   
    43    23    24 1   
    44    23    43 1   
    45    25    28 ar  
    46    26    27 ar  
    47    26    44 1   
    48    27    28 ar  
    49    27    45 1   
    50    28    46 1   
@<TRIPOS>SUBSTRUCTURE
     1 C3Z         1 TEMP              0 ****  ****    0 ROOT
