@<TRIPOS>MOLECULE
C40
   76    76     1     0     0
SMALL
No Charge or Current Charge


@<TRIPOS>ATOM
      1 C1           7.9870    -4.0220    -4.0230 c3         1 C40       0.146900
      2 O2           7.0000    -3.2930    -3.2750 os         1 C40      -0.449000
      3 C3           7.5420    -2.3280    -2.3600 c3         1 C40       0.161600
      4 C4           6.3630    -1.6440    -1.6480 c3         1 C40      -0.087400
      5 C5           6.8220    -0.5820    -0.6340 c3         1 C40       0.165600
      6 O6           5.6440    -0.0150    -0.0370 os         1 C40      -0.327100
      7 C7           5.6920     0.9830     0.9180 ca         1 C40       0.194100
      8 C8           6.9330     1.4760     1.3880 ca         1 C40      -0.210000
      9 C9           6.9790     2.4620     2.3830 ca         1 C40      -0.053000
     10 C10          5.7890     2.9650     2.9200 ca         1 C40      -0.157000
     11 C11          4.5510     2.4860     2.4650 ca         1 C40      -0.055000
     12 C12          4.4820     1.4900     1.4590 ca         1 C40      -0.191600
     13 C13          3.1330     0.9970     0.9740 c          1 C40       0.625700
     14 O14          2.9390     0.5310    -0.1400 o          1 C40      -0.594100
     15 C16          0.6870     0.8490     1.5760 c3         1 C40       0.104000
     16 N15          2.0900     1.1600     1.8620 ns         1 C40      -0.507900
     17 C18          0.0690     3.3280     1.3070 c3         1 C40      -0.086100
     18 C17         -0.0020     1.9130     0.6770 c3         1 C40      -0.086700
     19 C19         -1.4780     1.5430     0.3400 c3         1 C40      -0.106400
     20 N21         -0.9640     0.1910    -1.6850 n8         1 C40      -1.013200
     21 C20         -1.7020     0.1890    -0.3900 c3         1 C40       0.129500
     22 C22         -3.2180    -0.0930    -0.6420 c3         1 C40       0.176300
     23 O23         -3.5390     0.6130    -1.8380 oh         1 C40      -0.672000
     24 C24         -3.5270    -1.6010    -0.8500 c3         1 C40      -0.104400
     25 C25         -5.0270    -1.9290    -1.1090 c3         1 C40      -0.133700
     26 C26         -5.2620    -3.4470    -1.2930 c3         1 C40      -0.080100
     27 C27         -5.9390    -1.3600    -0.0010 c          1 C40       0.598100
     28 O28         -5.8590    -1.7140     1.1680 o          1 C40      -0.615100
     29 N29         -6.8450    -0.4120    -0.4200 ns         1 C40      -0.503900
     30 C31         -9.0490    -0.6520     0.7240 c3         1 C40      -0.101400
     31 C32        -10.1070     0.0340     1.6140 c3         1 C40      -0.072400
     32 C33        -11.3290    -0.8610     1.8970 c3         1 C40      -0.088100
     33 H1C1         8.6510    -4.5820    -3.3520 h1         1 C40       0.029033
     34 H1C2         7.5010    -4.7380    -4.6990 h1         1 C40       0.029033
     35 H1C3         8.5990    -3.3420    -4.6300 h1         1 C40       0.029033
     36 H3C1         8.1870    -2.8170    -1.6170 h1         1 C40       0.018200
     37 H3C2         8.1350    -1.5750    -2.8960 h1         1 C40       0.018200
     38 H4C1         5.7150    -1.1710    -2.3960 hc         1 C40       0.074200
     39 H4C2         5.7660    -2.4040    -1.1290 hc         1 C40       0.074200
     40 H5C1         7.4550    -1.0540     0.1290 h1         1 C40       0.033700
     41 H5C2         7.4050     0.1900    -1.1510 h1         1 C40       0.033700
     42 H8           7.8740     1.1030     0.9970 ha         1 C40       0.120000
     43 H9           7.9380     2.8360     2.7380 ha         1 C40       0.114000
     44 H10          5.8240     3.7340     3.6890 ha         1 C40       0.119000
     45 H11          3.6490     2.9200     2.8900 ha         1 C40       0.116000
     46 H15          2.3250     1.5310     2.7740 hn         1 C40       0.317500
     47 H161         0.6500    -0.1350     1.0910 h1         1 C40       0.053700
     48 H162         0.1470     0.7720     2.5290 h1         1 C40       0.053700
     49 H17          0.5550     1.9660    -0.2660 hc         1 C40       0.058700
     50 H181        -0.4320     3.3460     2.2830 hc         1 C40       0.033700
     51 H182         1.1080     3.6480     1.4480 hc         1 C40       0.033700
     52 H183        -0.4180     4.0660     0.6590 hc         1 C40       0.033700
     53 H191        -2.0530     1.5320     1.2740 hc         1 C40       0.051700
     54 H192        -1.9100     2.3450    -0.2720 hc         1 C40       0.051700
     55 H20         -1.3020    -0.6130     0.2470 h1         1 C40       0.059700
     56 H212        -0.8270    -0.7790    -1.9970 hn         1 C40       0.408500
     57 H22         -3.8040     0.2780     0.2120 h1         1 C40       0.070700
     58 H23         -2.6260     0.7250    -2.2140 ho         1 C40       0.450000
     59 H241        -2.9280    -1.9830    -1.6860 hc         1 C40       0.064700
     60 H242        -3.1960    -2.1470     0.0430 hc         1 C40       0.064700
     61 H25         -5.3090    -1.4510    -2.0550 hc         1 C40       0.053700
     62 H261        -6.3180    -3.6490    -1.5110 hc         1 C40       0.042367
     63 H262        -4.6630    -3.8350    -2.1250 hc         1 C40       0.042367
     64 H263        -4.9880    -4.0000    -0.3860 hc         1 C40       0.042367
     65 H29         -6.8210    -0.1660    -1.4030 hn         1 C40       0.319500
     66 H301        -7.3450     0.5260     1.3880 h1         1 C40       0.052200
     67 H302        -8.1600     1.1700    -0.0520 h1         1 C40       0.052200
     68 H311        -9.5090    -0.9400    -0.2300 hc         1 C40       0.046200
     69 H312        -8.7140    -1.5760     1.2110 hc         1 C40       0.046200
     70 H321        -9.6480     0.3240     2.5670 hc         1 C40       0.037700
     71 H322       -10.4470     0.9580     1.1280 hc         1 C40       0.037700
     72 H331       -11.8320    -1.1390     0.9630 hc         1 C40       0.032367
     73 H332       -11.0260    -1.7790     2.4150 hc         1 C40       0.032367
     74 H333       -12.0510    -0.3320     2.5310 hc         1 C40       0.032367
     75 H211        -0.0030     0.5110    -1.5140 hn         1 C40       0.408500
     76 C30         -7.8280     0.2470     0.4420 c3         1 C40       0.103000
@<TRIPOS>BOND
     1     1     2 1   
     2     1    33 1   
     3     1    34 1   
     4     1    35 1   
     5     2     3 1   
     6     3     4 1   
     7     3    36 1   
     8     3    37 1   
     9     4     5 1   
    10     4    38 1   
    11     4    39 1   
    12     5     6 1   
    13     5    40 1   
    14     5    41 1   
    15     6     7 1   
    16     7     8 ar  
    17     7    12 ar  
    18     8     9 ar  
    19     8    42 1   
    20     9    10 ar  
    21     9    43 1   
    22    10    11 ar  
    23    10    44 1   
    24    11    12 ar  
    25    11    45 1   
    26    12    13 1   
    27    13    14 2   
    28    13    16 1   
    29    15    16 1   
    30    15    18 1   
    31    15    47 1   
    32    15    48 1   
    33    16    46 1   
    34    17    18 1   
    35    17    50 1   
    36    17    51 1   
    37    17    52 1   
    38    18    19 1   
    39    18    49 1   
    40    19    21 1   
    41    19    53 1   
    42    19    54 1   
    43    20    21 1   
    44    20    56 1   
    45    20    75 1   
    46    21    22 1   
    47    21    55 1   
    48    22    23 1   
    49    22    24 1   
    50    22    57 1   
    51    23    58 1   
    52    24    25 1   
    53    24    59 1   
    54    24    60 1   
    55    25    26 1   
    56    25    27 1   
    57    25    61 1   
    58    26    62 1   
    59    26    63 1   
    60    26    64 1   
    61    27    28 2   
    62    27    29 1   
    63    29    65 1   
    64    29    76 1   
    65    30    31 1   
    66    30    68 1   
    67    30    69 1   
    68    30    76 1   
    69    31    32 1   
    70    31    70 1   
    71    31    71 1   
    72    32    72 1   
    73    32    73 1   
    74    32    74 1   
    75    66    76 1   
    76    67    76 1   
@<TRIPOS>SUBSTRUCTURE
     1 C40         1 TEMP              0 ****  ****    0 ROOT
