@<TRIPOS>MOLECULE
C40
   76    76     1     0     0
SMALL
bcc


@<TRIPOS>ATOM
      1 C1           7.1250    -5.0930    -2.7830 c3         1 C40       0.123700
      2 O2           6.1850    -4.1420    -2.3520 os         1 C40      -0.402600
      3 C3           6.7810    -3.0510    -1.6980 c3         1 C40       0.138400
      4 C4           5.6920    -2.0920    -1.2520 c3         1 C40      -0.087400
      5 C5           6.2930    -0.8680    -0.5930 c3         1 C40       0.142400
      6 O6           5.2240    -0.0360    -0.1730 os         1 C40      -0.303900
      7 C7           5.5000     1.1470     0.3960 ca         1 C40       0.194100
      8 C8           6.7880     1.6320     0.6080 ca         1 C40      -0.228000
      9 C9           6.9760     2.8660     1.2190 ca         1 C40      -0.071000
     10 C10          5.8950     3.6240     1.6370 ca         1 C40      -0.175000
     11 C11          4.6110     3.1320     1.4390 ca         1 C40      -0.073000
     12 C12          4.3990     1.9080     0.8190 ca         1 C40      -0.191600
     13 C13          3.0030     1.4340     0.5660 c          1 C40       0.692700
     14 O14          2.6070     1.1430    -0.5550 o          1 C40      -0.594100
     15 C16          0.8280     1.0200     1.6070 c3         1 C40       0.104000
     16 N15          2.2290     1.3770     1.6610 ns         1 C40      -0.574900
     17 C18         -0.0720     3.2870     2.2320 c3         1 C40      -0.086100
     18 C17         -0.0790     2.1780     1.1860 c3         1 C40      -0.086700
     19 C19         -1.5040     1.6960     0.9120 c3         1 C40      -0.106400
     20 N21         -0.9490     0.9790    -1.4320 n8         1 C40      -0.902800
     21 C20         -1.6250     0.6310    -0.1860 c3         1 C40       0.129500
     22 C22         -3.0980     0.3060    -0.4760 c3         1 C40       0.153100
     23 O23         -3.7310     1.3660    -1.1680 oh         1 C40      -0.609800
     24 C24         -3.2320    -1.0180    -1.2220 c3         1 C40      -0.104400
     25 C25         -4.6610    -1.3930    -1.6270 c3         1 C40      -0.133700
     26 C26         -4.6710    -2.6800    -2.4450 c3         1 C40      -0.080100
     27 C27         -5.5230    -1.5480    -0.3850 c          1 C40       0.665100
     28 O28         -5.4390    -2.5340     0.3380 o          1 C40      -0.615100
     29 N29         -6.3510    -0.5240    -0.1280 ns         1 C40      -0.570900
     30 C31         -8.6460    -1.0400     0.6450 c3         1 C40      -0.101400
     31 C32         -9.6170    -0.9540     1.8160 c3         1 C40      -0.072400
     32 C33        -11.0020    -1.4800     1.4670 c3         1 C40      -0.088100
     33 H1C1         7.6760    -5.5360    -1.9440 h1         1 C40       0.029033
     34 H1C2         6.5900    -5.8870    -3.3010 h1         1 C40       0.029033
     35 H1C3         7.8590    -4.6620    -3.4750 h1         1 C40       0.029033
     36 H3C1         7.3630    -3.3900    -0.8280 h1         1 C40       0.018200
     37 H3C2         7.4870    -2.5380    -2.3680 h1         1 C40       0.018200
     38 H4C1         5.1010    -1.7840    -2.1180 hc         1 C40       0.074200
     39 H4C2         5.0220    -2.5980    -0.5520 hc         1 C40       0.074200
     40 H5C1         6.9110    -1.1540     0.2660 h1         1 C40       0.033700
     41 H5C2         6.9380    -0.3340    -1.3010 h1         1 C40       0.033700
     42 H8           7.6570     1.0610     0.3070 ha         1 C40       0.138000
     43 H9           7.9840     3.2280     1.3690 ha         1 C40       0.132000
     44 H10          6.0450     4.5840     2.1120 ha         1 C40       0.137000
     45 H11          3.7590     3.7210     1.7580 ha         1 C40       0.134000
     46 H15          2.6370     1.5920     2.5550 hn         1 C40       0.317500
     47 H161         0.7210     0.1760     0.9240 h1         1 C40       0.053700
     48 H162         0.5410     0.6610     2.5970 h1         1 C40       0.053700
     49 H17          0.3210     2.5910     0.2540 hc         1 C40       0.058700
     50 H181        -0.4770     2.9340     3.1840 hc         1 C40       0.033700
     51 H182         0.9360     3.6610     2.4170 hc         1 C40       0.033700
     52 H183        -0.6780     4.1340     1.9080 hc         1 C40       0.033700
     53 H191        -1.9440     1.3050     1.8370 hc         1 C40       0.051700
     54 H192        -2.1110     2.5610     0.6260 hc         1 C40       0.051700
     55 H20         -1.1750    -0.3000     0.1740 h1         1 C40       0.059700
     56 H212         0.0520     0.8610    -1.3260 hn         1 C40       0.353300
     57 H22         -3.6190     0.2320     0.4850 h1         1 C40       0.070700
     58 H23         -3.3430     1.4050    -2.0490 ho         1 C40       0.411000
     59 H241        -2.6100    -0.9830    -2.1220 hc         1 C40       0.064700
     60 H242        -2.8170    -1.8150    -0.5980 hc         1 C40       0.064700
     61 H25         -5.0680    -0.5930    -2.2510 hc         1 C40       0.053700
     62 H261        -5.6810    -2.9530    -2.7540 hc         1 C40       0.042367
     63 H262        -4.0720    -2.5560    -3.3470 hc         1 C40       0.042367
     64 H263        -4.2550    -3.5140    -1.8790 hc         1 C40       0.042367
     65 H29         -6.3720     0.2450    -0.7780 hn         1 C40       0.319500
     66 H301        -6.8350    -1.0380     1.8210 h1         1 C40       0.052200
     67 H302        -7.3580     0.5560     1.3090 h1         1 C40       0.052200
     68 H311        -9.0520    -0.4900    -0.2100 hc         1 C40       0.046200
     69 H312        -8.5440    -2.0810     0.3250 hc         1 C40       0.046200
     70 H321        -9.2140    -1.5140     2.6650 hc         1 C40       0.037700
     71 H322        -9.6930     0.0860     2.1480 hc         1 C40       0.037700
     72 H331       -11.4410    -0.9130     0.6440 hc         1 C40       0.032367
     73 H332       -10.9630    -2.5270     1.1620 hc         1 C40       0.032367
     74 H333       -11.6820    -1.4080     2.3170 hc         1 C40       0.032367
     75 H211        -1.0830     1.9640    -1.6300 hn         1 C40       0.353300
     76 C30         -7.2690    -0.4840     0.9880 c3         1 C40       0.103000
@<TRIPOS>BOND
     1     1     2 1   
     2     1    33 1   
     3     1    34 1   
     4     1    35 1   
     5     2     3 1   
     6     3     4 1   
     7     3    36 1   
     8     3    37 1   
     9     4     5 1   
    10     4    38 1   
    11     4    39 1   
    12     5     6 1   
    13     5    40 1   
    14     5    41 1   
    15     6     7 1   
    16     7     8 ar  
    17     7    12 ar  
    18     8     9 ar  
    19     8    42 1   
    20     9    10 ar  
    21     9    43 1   
    22    10    11 ar  
    23    10    44 1   
    24    11    12 ar  
    25    11    45 1   
    26    12    13 1   
    27    13    14 2   
    28    13    16 1   
    29    15    16 1   
    30    15    18 1   
    31    15    47 1   
    32    15    48 1   
    33    16    46 1   
    34    17    18 1   
    35    17    50 1   
    36    17    51 1   
    37    17    52 1   
    38    18    19 1   
    39    18    49 1   
    40    19    21 1   
    41    19    53 1   
    42    19    54 1   
    43    20    21 1   
    44    20    56 1   
    45    20    75 1   
    46    21    22 1   
    47    21    55 1   
    48    22    23 1   
    49    22    24 1   
    50    22    57 1   
    51    23    58 1   
    52    24    25 1   
    53    24    59 1   
    54    24    60 1   
    55    25    26 1   
    56    25    27 1   
    57    25    61 1   
    58    26    62 1   
    59    26    63 1   
    60    26    64 1   
    61    27    28 2   
    62    27    29 1   
    63    29    65 1   
    64    29    76 1   
    65    30    31 1   
    66    30    68 1   
    67    30    69 1   
    68    30    76 1   
    69    31    32 1   
    70    31    70 1   
    71    31    71 1   
    72    32    72 1   
    73    32    73 1   
    74    32    74 1   
    75    66    76 1   
    76    67    76 1   
@<TRIPOS>SUBSTRUCTURE
     1 C40         1 TEMP              0 ****  ****    0 ROOT
