@<TRIPOS>MOLECULE
C41
   92    92     1     0     0
SMALL
No Charge or Current Charge


@<TRIPOS>ATOM
      1 C1         -12.2760    -2.7610    -0.2780 c3         1 C41       0.146900
      2 O2         -11.5440    -1.5350    -0.1120 os         1 C41      -0.450000
      3 C3         -10.1260    -1.7050     0.0400 c3         1 C41       0.160600
      4 C4          -9.5030    -0.3080     0.2050 c3         1 C41      -0.085400
      5 C5          -7.9750    -0.3630     0.3780 c3         1 C41       0.164600
      6 O6          -7.5040     0.9870     0.5200 os         1 C41      -0.327100
      7 C7          -6.1630     1.2940     0.6860 ca         1 C41       0.115100
      8 C8          -5.1720     0.2870     0.7440 ca         1 C41      -0.169000
      9 C9          -3.8140     0.6280     0.8980 ca         1 C41      -0.065300
     10 C10         -3.4510     1.9820     1.0200 ca         1 C41      -0.109000
     11 C11         -4.4270     2.9910     0.9680 ca         1 C41      -0.166000
     12 C12         -5.7890     2.6550     0.7970 ca         1 C41       0.106100
     13 O13         -6.7780     3.6240     0.7370 os         1 C41      -0.322100
     14 C14         -6.4890     5.0290     0.8380 c3         1 C41       0.145900
     15 C15         -2.7510    -0.4650     0.9570 c3         1 C41      -0.024100
     16 C16         -1.6460    -0.4060    -0.1510 c3         1 C41      -0.043700
     17 C17         -2.1790    -0.6280    -1.6160 c3         1 C41      -0.049700
     18 C18         -2.8710    -1.9970    -1.8360 c3         1 C41      -0.086100
     19 C19         -3.0670     0.5230    -2.1520 c3         1 C41      -0.086100
     20 C20         -0.4660    -1.3540     0.2600 c3         1 C41      -0.067400
     21 C21          0.8530    -1.2550    -0.5700 c3         1 C41       0.137500
     22 N22          0.7810    -2.0820    -1.8040 n8         1 C41      -1.010200
     23 C23          2.1200    -1.6140     0.2890 c3         1 C41       0.123300
     24 O24          2.0710    -2.9960     0.6820 oh         1 C41      -0.653000
     25 C25          3.4580    -1.3210    -0.4520 c3         1 C41      -0.103400
     26 C26          4.7250    -1.1450     0.4500 c3         1 C41      -0.123700
     27 C27          5.1900    -2.4160     1.2410 c3         1 C41      -0.053700
     28 C28          5.5710    -3.6260     0.3520 c3         1 C41      -0.088100
     29 C29          6.3310    -2.0910     2.2350 c3         1 C41      -0.088100
     30 C30          5.8700    -0.4970    -0.3700 c          1 C41       0.598100
     31 O31          6.3420    -1.0020    -1.3780 o          1 C41      -0.603100
     32 N32          6.2960     0.7270     0.1010 ns         1 C41      -0.508900
     33 C33          7.3330     1.5640    -0.5220 c3         1 C41       0.117000
     34 C34          8.7570     1.4010     0.0980 c3         1 C41      -0.145000
     35 C35          8.7000     1.5950     1.6450 c3         1 C41      -0.084600
     36 C36          9.3310    -0.0120    -0.2180 c3         1 C41      -0.084600
     37 C37          9.6960     2.4770    -0.5240 c          1 C41       0.609100
     38 O38          9.3450     3.2860    -1.3670 o          1 C41      -0.608100
     39 N39         10.9760     2.4960    -0.0880 nt         1 C41      -0.606000
     40 H1C1       -11.9380    -3.2980    -1.1740 h1         1 C41       0.028367
     41 H1C2       -12.1420    -3.4160     0.5920 h1         1 C41       0.028367
     42 H1C3       -13.3480    -2.5530    -0.3880 h1         1 C41       0.028367
     43 H3C1        -9.9010    -2.3150     0.9250 h1         1 C41       0.018700
     44 H3C2        -9.6970    -2.1980    -0.8430 h1         1 C41       0.018700
     45 H4C1        -9.7440     0.3000    -0.6740 hc         1 C41       0.070200
     46 H4C2        -9.9460     0.1840     1.0790 hc         1 C41       0.070200
     47 H5C1        -7.7280    -0.9560     1.2680 h1         1 C41       0.030200
     48 H5C2        -7.5240    -0.8400    -0.5020 h1         1 C41       0.030200
     49 H8          -5.4380    -0.7620     0.6590 ha         1 C41       0.116000
     50 H10         -2.4070     2.2560     1.1570 ha         1 C41       0.113000
     51 H151        -2.2670    -0.3900     1.9380 hc         1 C41       0.041200
     52 H152        -3.2160    -1.4570     0.9480 hc         1 C41       0.041200
     53 H11         -4.1060     4.0240     1.0610 ha         1 C41       0.118000
     54 H141        -6.0160     5.2620     1.8000 h1         1 C41       0.038367
     55 H142        -5.8200     5.3490     0.0290 h1         1 C41       0.038367
     56 H143        -7.4150     5.6130     0.7640 h1         1 C41       0.038367
     57 H16         -1.2250     0.6070    -0.1240 hc         1 C41       0.060700
     58 H17         -1.3050    -0.6110    -2.2740 hc         1 C41       0.046700
     59 H201        -0.2090    -1.1160     1.2990 hc         1 C41       0.046200
     60 H202        -0.8110    -2.3950     0.2830 hc         1 C41       0.046200
     61 H181        -3.8040    -2.0670    -1.2650 hc         1 C41       0.031200
     62 H182        -3.1160    -2.1350    -2.8960 hc         1 C41       0.031200
     63 H183        -2.2200    -2.8260    -1.5370 hc         1 C41       0.031200
     64 H191        -2.6330     1.5010    -1.9120 hc         1 C41       0.031200
     65 H192        -3.1540     0.4560    -3.2430 hc         1 C41       0.031200
     66 H193        -4.0820     0.4790    -1.7440 hc         1 C41       0.031200
     67 H21          0.9710    -0.2050    -0.8770 h1         1 C41       0.060700
     68 H221         1.7070    -2.1270    -2.2410 hn         1 C41       0.400000
     69 H222         0.5730    -3.0510    -1.5440 hn         1 C41       0.400000
     70 H23          2.0940    -0.9720     1.1820 h1         1 C41       0.074700
     71 H24          2.3080    -3.5260    -0.1070 ho         1 C41       0.436000
     72 H251         3.6450    -2.0790    -1.2220 hc         1 C41       0.057700
     73 H252         3.3270    -0.3780    -0.9990 hc         1 C41       0.057700
     74 H26          4.4460    -0.4150     1.2210 hc         1 C41       0.046700
     75 H27          4.3460    -2.7360     1.8650 hc         1 C41       0.066700
     76 H281         6.4540    -3.4110    -0.2600 hc         1 C41       0.035367
     77 H282         5.8030    -4.4980     0.9750 hc         1 C41       0.035367
     78 H283         4.7490    -3.9100    -0.3150 hc         1 C41       0.035367
     79 H291         6.0550    -1.2540     2.8880 hc         1 C41       0.035367
     80 H292         6.5440    -2.9570     2.8730 hc         1 C41       0.035367
     81 H293         7.2540    -1.8260     1.7090 hc         1 C41       0.035367
     82 H32          5.8430     1.0730     0.9380 hn         1 C41       0.307500
     83 H331         7.3720     1.3530    -1.6000 h1         1 C41       0.073200
     84 H332         7.0130     2.6090    -0.4120 h1         1 C41       0.073200
     85 H351         8.0600     0.8420     2.1190 hc         1 C41       0.041033
     86 H352         9.6950     1.5040     2.0980 hc         1 C41       0.041033
     87 H353         8.3040     2.5860     1.8970 hc         1 C41       0.041033
     88 H361         9.3980    -0.1700    -1.3010 hc         1 C41       0.041033
     89 H362        10.3340    -0.1440     0.2060 hc         1 C41       0.041033
     90 H363         8.6970    -0.8020     0.1980 hc         1 C41       0.041033
     91 H391        11.2820     1.8330     0.6080 hn         1 C41       0.313500
     92 H392        11.6160     3.1780    -0.4660 hn         1 C41       0.313500
@<TRIPOS>BOND
     1     1     2 1   
     2     1    40 1   
     3     1    41 1   
     4     1    42 1   
     5     2     3 1   
     6     3     4 1   
     7     3    43 1   
     8     3    44 1   
     9     4     5 1   
    10     4    45 1   
    11     4    46 1   
    12     5     6 1   
    13     5    47 1   
    14     5    48 1   
    15     6     7 1   
    16     7     8 ar  
    17     7    12 ar  
    18     8     9 ar  
    19     8    49 1   
    20     9    10 ar  
    21     9    15 1   
    22    10    11 ar  
    23    10    50 1   
    24    11    12 ar  
    25    11    53 1   
    26    12    13 1   
    27    13    14 1   
    28    14    54 1   
    29    14    55 1   
    30    14    56 1   
    31    15    16 1   
    32    15    51 1   
    33    15    52 1   
    34    16    17 1   
    35    16    20 1   
    36    16    57 1   
    37    17    18 1   
    38    17    19 1   
    39    17    58 1   
    40    18    61 1   
    41    18    62 1   
    42    18    63 1   
    43    19    64 1   
    44    19    65 1   
    45    19    66 1   
    46    20    21 1   
    47    20    59 1   
    48    20    60 1   
    49    21    22 1   
    50    21    23 1   
    51    21    67 1   
    52    22    68 1   
    53    22    69 1   
    54    23    24 1   
    55    23    25 1   
    56    23    70 1   
    57    24    71 1   
    58    25    26 1   
    59    25    72 1   
    60    25    73 1   
    61    26    27 1   
    62    26    30 1   
    63    26    74 1   
    64    27    28 1   
    65    27    29 1   
    66    27    75 1   
    67    28    76 1   
    68    28    77 1   
    69    28    78 1   
    70    29    79 1   
    71    29    80 1   
    72    29    81 1   
    73    30    31 2   
    74    30    32 1   
    75    32    33 1   
    76    32    82 1   
    77    33    34 1   
    78    33    83 1   
    79    33    84 1   
    80    34    35 1   
    81    34    36 1   
    82    34    37 1   
    83    35    85 1   
    84    35    86 1   
    85    35    87 1   
    86    36    88 1   
    87    36    89 1   
    88    36    90 1   
    89    37    38 2   
    90    37    39 1   
    91    39    91 1   
    92    39    92 1   
@<TRIPOS>SUBSTRUCTURE
     1 C41         1 TEMP              0 ****  ****    0 ROOT
