@<TRIPOS>MOLECULE
C41
   92    92     1     0     0
SMALL
abcg2


@<TRIPOS>ATOM
      1 C1         -11.5580    -2.9350     1.6450 c3         1 C41       0.146900
      2 O2         -11.0670    -1.6880     1.2250 os         1 C41      -0.450000
      3 C3          -9.6630    -1.6320     1.2360 c3         1 C41       0.160600
      4 C4          -9.2200    -0.2530     0.7850 c3         1 C41      -0.085400
      5 C5          -7.7080    -0.1590     0.7560 c3         1 C41       0.164600
      6 O6          -7.3600     1.1450     0.3290 os         1 C41      -0.327100
      7 C7          -6.0540     1.4450     0.1730 ca         1 C41       0.115100
      8 C8          -5.0050     0.5890     0.4690 ca         1 C41      -0.169000
      9 C9          -3.6750     0.9660     0.2660 ca         1 C41      -0.065300
     10 C10         -3.4230     2.2370    -0.2190 ca         1 C41      -0.109000
     11 C11         -4.4640     3.1140    -0.5160 ca         1 C41      -0.166000
     12 C12         -5.7820     2.7310    -0.3290 ca         1 C41       0.106100
     13 O13         -6.8600     3.5020    -0.5870 os         1 C41      -0.322100
     14 C14         -6.6360     4.8030    -1.0860 c3         1 C41       0.145900
     15 C15         -2.5460     0.0190     0.5650 c3         1 C41      -0.024100
     16 C16         -1.7200    -0.4460    -0.6490 c3         1 C41      -0.043700
     17 C17         -2.5000    -1.2650    -1.7000 c3         1 C41      -0.049700
     18 C18         -3.3150    -2.4020    -1.0900 c3         1 C41      -0.086100
     19 C19         -3.3640    -0.4130    -2.6290 c3         1 C41      -0.086100
     20 C20         -0.4800    -1.2200    -0.1570 c3         1 C41      -0.067400
     21 C21          0.8320    -0.7000    -0.7390 c3         1 C41       0.137500
     22 N22          0.8000    -0.7760    -2.1920 n8         1 C41      -1.010200
     23 C23          2.0460    -1.3900    -0.0850 c3         1 C41       0.123300
     24 O24          2.0190    -2.7900    -0.2960 oh         1 C41      -0.653000
     25 C25          3.3540    -0.7420    -0.5370 c3         1 C41      -0.103400
     26 C26          4.5770    -1.0260     0.3460 c3         1 C41      -0.123700
     27 C27          5.0800    -2.4880     0.3320 c3         1 C41      -0.053700
     28 C28          5.4920    -3.0020    -1.0440 c3         1 C41      -0.088100
     29 C29          6.2150    -2.7000     1.3320 c3         1 C41      -0.088100
     30 C30          5.6820    -0.0520    -0.0390 c          1 C41       0.598100
     31 O31          5.9990     0.1410    -1.2050 o          1 C41      -0.603100
     32 N32          6.2680     0.5880     0.9920 ns         1 C41      -0.508900
     33 C33          7.2630     1.6260     0.8540 c3         1 C41       0.117000
     34 C34          8.6990     1.1550     1.1510 c3         1 C41      -0.145000
     35 C35          8.7760     0.5770     2.5680 c3         1 C41      -0.084600
     36 C36          9.1350     0.0980     0.1300 c3         1 C41      -0.084600
     37 C37          9.6240     2.3710     1.0280 c          1 C41       0.609100
     38 O38          9.2190     3.4710     0.6780 o          1 C41      -0.608100
     39 N39         10.9150     2.1530     1.3200 nt         1 C41      -0.606000
     40 H1C1       -11.1990    -3.7540     1.0100 h1         1 C41       0.028367
     41 H1C2       -11.2740    -3.1630     2.6790 h1         1 C41       0.028367
     42 H1C3       -12.6460    -2.9060     1.5870 h1         1 C41       0.028367
     43 H3C1        -9.2740    -1.8410     2.2440 h1         1 C41       0.018700
     44 H3C2        -9.2400    -2.4000     0.5720 h1         1 C41       0.018700
     45 H4C1        -9.6180    -0.0480    -0.2130 hc         1 C41       0.070200
     46 H4C2        -9.6230     0.5020     1.4650 hc         1 C41       0.070200
     47 H5C1        -7.2930    -0.3610     1.7500 h1         1 C41       0.030200
     48 H5C2        -7.2950    -0.9080     0.0700 h1         1 C41       0.030200
     49 H8          -5.2100    -0.4020     0.8570 ha         1 C41       0.116000
     50 H10         -2.4030     2.5650    -0.3810 ha         1 C41       0.113000
     51 H151        -1.8530     0.5150     1.2510 hc         1 C41       0.041200
     52 H152        -2.9240    -0.8530     1.1080 hc         1 C41       0.041200
     53 H11         -4.2230     4.0980    -0.8930 ha         1 C41       0.118000
     54 H141        -6.0600     5.4160    -0.3880 h1         1 C41       0.038367
     55 H142        -6.1160     4.7880    -2.0490 h1         1 C41       0.038367
     56 H143        -7.6150     5.2560    -1.2250 h1         1 C41       0.038367
     57 H16         -1.3640     0.4550    -1.1620 hc         1 C41       0.060700
     58 H17         -1.7320    -1.7210    -2.3330 hc         1 C41       0.046700
     59 H201        -0.4030    -1.1630     0.9330 hc         1 C41       0.046200
     60 H202        -0.5810    -2.2860    -0.3860 hc         1 C41       0.046200
     61 H181        -4.1680    -2.0300    -0.5190 hc         1 C41       0.031200
     62 H182        -3.7110    -3.0530    -1.8720 hc         1 C41       0.031200
     63 H183        -2.7170    -3.0240    -0.4210 hc         1 C41       0.031200
     64 H191        -2.7840     0.4050    -3.0590 hc         1 C41       0.031200
     65 H192        -3.7450    -1.0180    -3.4550 hc         1 C41       0.031200
     66 H193        -4.2210     0.0210    -2.1160 hc         1 C41       0.031200
     67 H21          0.9060     0.3630    -0.4760 h1         1 C41       0.060700
     68 H221         1.6420    -0.3870    -2.5970 hn         1 C41       0.400000
     69 H222         0.7390    -1.7380    -2.5030 hn         1 C41       0.400000
     70 H23          1.9500    -1.2570     0.9990 h1         1 C41       0.074700
     71 H24          2.2140    -2.9600    -1.2240 ho         1 C41       0.436000
     72 H251         3.5650    -1.0050    -1.5770 hc         1 C41       0.057700
     73 H252         3.1880     0.3410    -0.5350 hc         1 C41       0.057700
     74 H26          4.2820    -0.8160     1.3810 hc         1 C41       0.046700
     75 H27          4.2360    -3.0930     0.6710 hc         1 C41       0.066700
     76 H281         6.3630    -2.4710    -1.4290 hc         1 C41       0.035367
     77 H282         5.7530    -4.0590    -0.9820 hc         1 C41       0.035367
     78 H283         4.6950    -2.9090    -1.7820 hc         1 C41       0.035367
     79 H291         5.9670    -2.3100     2.3210 hc         1 C41       0.035367
     80 H292         6.4310    -3.7640     1.4430 hc         1 C41       0.035367
     81 H293         7.1400    -2.2190     1.0080 hc         1 C41       0.035367
     82 H32          5.9140     0.4050     1.9160 hn         1 C41       0.307500
     83 H331         7.2020     2.0230    -0.1580 h1         1 C41       0.073200
     84 H332         6.9940     2.4340     1.5370 h1         1 C41       0.073200
     85 H351         8.0710    -0.2490     2.6760 hc         1 C41       0.041033
     86 H352         9.7640     0.1770     2.8000 hc         1 C41       0.041033
     87 H353         8.5340     1.3270     3.3240 hc         1 C41       0.041033
     88 H361         9.1370     0.4970    -0.8850 hc         1 C41       0.041033
     89 H362        10.1320    -0.2880     0.3460 hc         1 C41       0.041033
     90 H363         8.4550    -0.7530     0.1500 hc         1 C41       0.041033
     91 H391        11.2690     1.2500     1.5820 hn         1 C41       0.313500
     92 H392        11.5870     2.8960     1.2220 hn         1 C41       0.313500
@<TRIPOS>BOND
     1     1     2 1   
     2     1    40 1   
     3     1    41 1   
     4     1    42 1   
     5     2     3 1   
     6     3     4 1   
     7     3    43 1   
     8     3    44 1   
     9     4     5 1   
    10     4    45 1   
    11     4    46 1   
    12     5     6 1   
    13     5    47 1   
    14     5    48 1   
    15     6     7 1   
    16     7     8 ar  
    17     7    12 ar  
    18     8     9 ar  
    19     8    49 1   
    20     9    10 ar  
    21     9    15 1   
    22    10    11 ar  
    23    10    50 1   
    24    11    12 ar  
    25    11    53 1   
    26    12    13 1   
    27    13    14 1   
    28    14    54 1   
    29    14    55 1   
    30    14    56 1   
    31    15    16 1   
    32    15    51 1   
    33    15    52 1   
    34    16    17 1   
    35    16    20 1   
    36    16    57 1   
    37    17    18 1   
    38    17    19 1   
    39    17    58 1   
    40    18    61 1   
    41    18    62 1   
    42    18    63 1   
    43    19    64 1   
    44    19    65 1   
    45    19    66 1   
    46    20    21 1   
    47    20    59 1   
    48    20    60 1   
    49    21    22 1   
    50    21    23 1   
    51    21    67 1   
    52    22    68 1   
    53    22    69 1   
    54    23    24 1   
    55    23    25 1   
    56    23    70 1   
    57    24    71 1   
    58    25    26 1   
    59    25    72 1   
    60    25    73 1   
    61    26    27 1   
    62    26    30 1   
    63    26    74 1   
    64    27    28 1   
    65    27    29 1   
    66    27    75 1   
    67    28    76 1   
    68    28    77 1   
    69    28    78 1   
    70    29    79 1   
    71    29    80 1   
    72    29    81 1   
    73    30    31 2   
    74    30    32 1   
    75    32    33 1   
    76    32    82 1   
    77    33    34 1   
    78    33    83 1   
    79    33    84 1   
    80    34    35 1   
    81    34    36 1   
    82    34    37 1   
    83    35    85 1   
    84    35    86 1   
    85    35    87 1   
    86    36    88 1   
    87    36    89 1   
    88    36    90 1   
    89    37    38 2   
    90    37    39 1   
    91    39    91 1   
    92    39    92 1   
@<TRIPOS>SUBSTRUCTURE
     1 C41         1 TEMP              0 ****  ****    0 ROOT
