@<TRIPOS>MOLECULE
C44
   84    88     1     0     0
SMALL
No Charge or Current Charge


@<TRIPOS>ATOM
      1 C1          30.3710     1.5190    34.0770 c          1 C44       0.615700
      2 N2          29.1750     1.4670    33.3930 ns         1 C44      -0.496900
      3 C3          28.7440     2.4200    32.3580 c3         1 C44       0.080700
      4 C4          27.8000     3.5290    32.9240 c3         1 C44       0.146300
      5 C5          28.1190     1.6390    31.1710 c3         1 C44      -0.041100
      6 C6          28.4010     4.2940    34.1400 c3         1 C44       0.135800
      7 O7          31.1310     2.4710    33.9670 o          1 C44      -0.591100
      8 C8          30.6910     0.3240    34.9520 ca         1 C44      -0.094600
      9 C9          29.9690    -0.8890    34.8630 ca         1 C44      -0.163000
     10 C10         30.3040    -1.9820    35.6780 ca         1 C44       0.331000
     11 C11         31.3600    -1.8770    36.5890 ca         1 C44      -0.200000
     12 C12         32.0870    -0.6800    36.7100 ca         1 C44       0.301000
     13 C13         31.7570     0.4020    35.8730 ca         1 C44      -0.092000
     14 C14         28.9480     0.4260    30.7550 ca         1 C44      -0.073300
     15 C15         30.1940     0.6020    30.1220 ca         1 C44      -0.107000
     16 C16         30.9720    -0.5120    29.7660 ca         1 C44      -0.110000
     17 C17         30.5110    -1.8100    30.0410 ca         1 C44      -0.111000
     18 C18         29.2690    -1.9930    30.6720 ca         1 C44      -0.110000
     19 C19         28.4890    -0.8790    31.0270 ca         1 C44      -0.107000
     20 N20         27.4740     5.3510    34.6230 n7         1 C44      -0.877400
     21 N32         29.6160    -3.1960    35.5900 nu         1 C44      -0.958200
     22 C33         28.2830    -3.4340    35.0100 c3         1 C44       0.212800
     23 C34         27.1930    -2.7310    35.8390 c3         1 C44      -0.128100
     24 S41         33.1840     0.6380    38.8510 s6         1 C44       1.208100
     25 C42         32.7710    -0.3740    40.2880 c6         1 C44      -0.341400
     26 C43         33.7430    -1.5650    40.4530 c6         1 C44      -0.055400
     27 C44         33.7310    -2.4650    39.1950 c6         1 C44      -0.116400
     28 C45         34.0890    -1.7010    37.8880 c6         1 C44       0.207800
     29 O52         34.5640     1.1220    38.9690 o          1 C44      -0.530000
     30 O53         32.0840     1.5740    38.5960 o          1 C44      -0.530000
     31 C54         28.0040     6.3660    35.5660 c6         1 C44       0.232800
     32 C56         28.3680     5.7230    36.9320 c6         1 C44      -0.068400
     33 C57         29.1210     6.7210    37.8290 c6         1 C44      -0.069400
     34 C58         30.4580     7.1170    37.1670 c6         1 C44      -0.031100
     35 C59         30.3000     7.5470    35.7040 ca         1 C44      -0.056300
     36 C60         29.1520     7.1960    34.9450 ca         1 C44      -0.109300
     37 C67         31.3260     8.3090    35.1110 ca         1 C44      -0.110000
     38 C68         31.2150     8.7430    33.7810 ca         1 C44      -0.106000
     39 C69         30.0710     8.4240    33.0350 ca         1 C44      -0.114000
     40 C70         29.0440     7.6620    33.6150 ca         1 C44      -0.115000
     41 N75         33.1680    -0.5680    37.6100 nh         1 C44      -0.773300
     42 O82         27.4570     4.4720    31.8830 oh         1 C44      -0.652000
     43 H2          28.6050     0.6470    33.5480 hn         1 C44       0.318500
     44 H3          29.6460     2.9170    31.9730 h1         1 C44       0.080700
     45 H4          26.8870     3.0300    33.2790 h1         1 C44       0.083700
     46 H5C1        27.1060     1.3230    31.4490 hc         1 C44       0.060700
     47 H5C2        27.9980     2.3140    30.3150 hc         1 C44       0.060700
     48 H6C1        28.6110     3.5790    34.9460 h1         1 C44       0.047700
     49 H6C2        29.3620     4.7300    33.8310 h1         1 C44       0.047700
     50 H82         28.2850     4.9260    31.6160 ho         1 C44       0.436000
     51 H20         27.1410     5.8440    33.7870 hn         1 C44       0.420000
     52 H9          29.1660    -1.0010    34.1440 ha         1 C44       0.129000
     53 H13         32.3410     1.3150    35.9410 ha         1 C44       0.143000
     54 H11         31.6060    -2.7310    37.2060 ha         1 C44       0.110000
     55 H32         29.9860    -3.9410    36.1840 hn         1 C44       0.471000
     56 H15         30.5610     1.6040    29.9110 ha         1 C44       0.109500
     57 H19         27.5310    -1.0330    31.5180 ha         1 C44       0.109500
     58 H16         31.9350    -0.3690    29.2780 ha         1 C44       0.111000
     59 H17         31.1150    -2.6730    29.7670 ha         1 C44       0.112000
     60 H18         28.9120    -2.9980    30.8870 ha         1 C44       0.111000
     61 H54         27.1900     7.0800    35.7660 h1         1 C44       0.057700
     62 H331        28.2430    -3.0830    33.9690 h1         1 C44       0.054200
     63 H332        28.0720    -4.5130    34.9980 h1         1 C44       0.054200
     64 H341        27.2010    -3.0910    36.8740 hc         1 C44       0.041700
     65 H342        27.3390    -1.6450    35.8460 hc         1 C44       0.041700
     66 H343        26.2040    -2.9380    35.4120 hc         1 C44       0.041700
     67 H422        31.7430    -0.7170    40.1230 h1         1 C44       0.101700
     68 H431        34.7640    -1.2000    40.6420 hc         1 C44       0.061700
     69 H432        33.4600    -2.1580    41.3340 hc         1 C44       0.061700
     70 H441        34.4460    -3.2880    39.3330 hc         1 C44       0.055700
     71 H442        32.7460    -2.9380    39.1010 hc         1 C44       0.055700
     72 H451        35.1250    -1.3340    37.9560 h1         1 C44       0.074700
     73 H452        34.0800    -2.4090    37.0450 h1         1 C44       0.074700
     74 H561        27.4530     5.3800    37.4350 hc         1 C44       0.053200
     75 H562        28.9980     4.8350    36.7910 hc         1 C44       0.053200
     76 H571        28.5040     7.6160    37.9940 hc         1 C44       0.043700
     77 H572        29.3090     6.2790    38.8170 hc         1 C44       0.043700
     78 H581        30.9240     7.9240    37.7490 hc         1 C44       0.051200
     79 H582        31.1520     6.2670    37.2130 hc         1 C44       0.051200
     80 H67         32.2110     8.5700    35.6860 ha         1 C44       0.111000
     81 H70         28.1610     7.4370    33.0230 ha         1 C44       0.100000
     82 H68         32.0110     9.3330    33.3320 ha         1 C44       0.110000
     83 H69         29.9780     8.7710    32.0080 ha         1 C44       0.109000
     84 H421        32.8010     0.2990    41.1530 h1         1 C44       0.101700
@<TRIPOS>BOND
     1     1     2 1   
     2     1     7 2   
     3     1     8 1   
     4     2     3 1   
     5     2    43 1   
     6     3     4 1   
     7     3     5 1   
     8     3    44 1   
     9     4     6 1   
    10     4    42 1   
    11     4    45 1   
    12     5    14 1   
    13     5    46 1   
    14     5    47 1   
    15     6    20 1   
    16     6    48 1   
    17     6    49 1   
    18     8     9 ar  
    19     8    13 ar  
    20     9    10 ar  
    21     9    52 1   
    22    10    11 ar  
    23    10    21 1   
    24    11    12 ar  
    25    11    54 1   
    26    12    13 ar  
    27    12    41 1   
    28    13    53 1   
    29    14    15 ar  
    30    14    19 ar  
    31    15    16 ar  
    32    15    56 1   
    33    16    17 ar  
    34    16    58 1   
    35    17    18 ar  
    36    17    59 1   
    37    18    19 ar  
    38    18    60 1   
    39    19    57 1   
    40    20    31 1   
    41    20    51 1   
    42    21    22 1   
    43    21    55 1   
    44    22    23 1   
    45    22    62 1   
    46    22    63 1   
    47    23    64 1   
    48    23    65 1   
    49    23    66 1   
    50    24    25 1   
    51    24    29 2   
    52    24    30 2   
    53    24    41 1   
    54    25    26 1   
    55    25    67 1   
    56    25    84 1   
    57    26    27 1   
    58    26    68 1   
    59    26    69 1   
    60    27    28 1   
    61    27    70 1   
    62    27    71 1   
    63    28    41 1   
    64    28    72 1   
    65    28    73 1   
    66    31    32 1   
    67    31    36 1   
    68    31    61 1   
    69    32    33 1   
    70    32    74 1   
    71    32    75 1   
    72    33    34 1   
    73    33    76 1   
    74    33    77 1   
    75    34    35 1   
    76    34    78 1   
    77    34    79 1   
    78    35    36 ar  
    79    35    37 ar  
    80    36    40 ar  
    81    37    38 ar  
    82    37    80 1   
    83    38    39 ar  
    84    38    82 1   
    85    39    40 ar  
    86    39    83 1   
    87    40    81 1   
    88    42    50 1   
@<TRIPOS>SUBSTRUCTURE
     1 C44         1 TEMP              0 ****  ****    0 ROOT
