@<TRIPOS>MOLECULE
C44
   84    88     1     0     0
SMALL
bcc


@<TRIPOS>ATOM
      1 C1          30.3350     1.5480    33.4810 c          1 C44       0.682700
      2 N2          29.0190     1.5360    33.2140 ns         1 C44      -0.563900
      3 C3          28.3650     2.4020    32.2590 c3         1 C44       0.080700
      4 C4          27.6630     3.5560    33.0010 c3         1 C44       0.123100
      5 C5          27.3840     1.5820    31.4100 c3         1 C44      -0.041100
      6 C6          28.6420     4.3910    33.8160 c3         1 C44       0.135800
      7 O7          31.1410     2.2920    32.9430 o          1 C44      -0.591100
      8 C8          30.7420     0.5890    34.5530 ca         1 C44      -0.094600
      9 C9          30.4000    -0.7520    34.4590 ca         1 C44      -0.181000
     10 C10         30.7850    -1.6520    35.4640 ca         1 C44       0.192600
     11 C11         31.4640    -1.1390    36.5820 ca         1 C44      -0.218000
     12 C12         31.7940     0.2040    36.6600 ca         1 C44       0.162600
     13 C13         31.4620     1.0780    35.6320 ca         1 C44      -0.110000
     14 C14         28.0220     0.3330    30.8690 ca         1 C44      -0.073300
     15 C15         28.9360     0.3960    29.8190 ca         1 C44      -0.125000
     16 C16         29.5650    -0.7510    29.3540 ca         1 C44      -0.128000
     17 C17         29.2880    -1.9840    29.9320 ca         1 C44      -0.129000
     18 C18         28.3720    -2.0600    30.9720 ca         1 C44      -0.128000
     19 C19         27.7470    -0.9100    31.4350 ca         1 C44      -0.125000
     20 N20         27.9430     5.3370    34.6600 n7         1 C44      -0.822200
     21 N32         30.5360    -2.9910    35.3750 nu         1 C44      -0.764600
     22 C33         29.5880    -3.5580    34.4430 c3         1 C44       0.212800
     23 C34         28.1300    -3.2320    34.7460 c3         1 C44      -0.128100
     24 S41         31.6410     1.5770    38.9260 s6         1 C44       1.238900
     25 C42         31.4730     0.3760    40.2360 c6         1 C44      -0.230600
     26 C43         32.8420    -0.1750    40.6190 c6         1 C44      -0.055400
     27 C44         33.5510    -0.8320    39.4390 c6         1 C44      -0.116400
     28 C45         33.7410     0.1130    38.2580 c6         1 C44       0.207800
     29 O52         32.5030     2.6450    39.4140 o          1 C44      -0.600800
     30 O53         30.3390     1.9050    38.3720 o          1 C44      -0.600800
     31 C54         28.7230     5.8930    35.7600 c6         1 C44       0.232800
     32 C56         28.8310     4.8780    36.8960 c6         1 C44      -0.068400
     33 C57         29.8170     5.3310    37.9590 c6         1 C44      -0.069400
     34 C58         31.2110     5.4050    37.3600 c6         1 C44      -0.031100
     35 C59         31.2400     6.2340    36.1020 ca         1 C44      -0.056300
     36 C60         30.0810     6.4600    35.3540 ca         1 C44      -0.109300
     37 C67         32.4440     6.7980    35.6780 ca         1 C44      -0.128000
     38 C68         32.5160     7.5790    34.5370 ca         1 C44      -0.124000
     39 C69         31.3620     7.8150    33.7990 ca         1 C44      -0.132000
     40 C70         30.1630     7.2590    34.2120 ca         1 C44      -0.133000
     41 N75         32.4940     0.7290    37.7790 nh         1 C44      -0.634900
     42 O82         26.9110     4.3560    32.1150 oh         1 C44      -0.589800
     43 H2          28.4300     0.9420    33.7770 hn         1 C44       0.318500
     44 H3          29.1430     2.8120    31.6110 h1         1 C44       0.080700
     45 H4          26.9340     3.1160    33.6910 h1         1 C44       0.083700
     46 H5C1        26.5150     1.3140    32.0190 hc         1 C44       0.060700
     47 H5C2        27.0170     2.2050    30.5940 hc         1 C44       0.060700
     48 H6C1        29.2180     3.7280    34.4610 h1         1 C44       0.047700
     49 H6C2        29.3730     4.8580    33.1380 h1         1 C44       0.047700
     50 H82         27.5170     4.7810    31.4970 ho         1 C44       0.397000
     51 H20         27.5390     6.0760    34.1020 hn         1 C44       0.364800
     52 H9          29.8600    -1.0970    33.5860 ha         1 C44       0.147000
     53 H13         31.7420     2.1210    35.6910 ha         1 C44       0.161000
     54 H11         31.7210    -1.8130    37.3910 ha         1 C44       0.128000
     55 H32         30.6790    -3.5180    36.2210 hn         1 C44       0.415800
     56 H15         29.1590     1.3530    29.3610 ha         1 C44       0.127500
     57 H19         27.0310    -0.9790    32.2470 ha         1 C44       0.127500
     58 H16         30.2720    -0.6830    28.5370 ha         1 C44       0.129000
     59 H17         29.7780    -2.8780    29.5700 ha         1 C44       0.130000
     60 H18         28.1400    -3.0180    31.4210 ha         1 C44       0.129000
     61 H54         28.1340     6.7350    36.1420 h1         1 C44       0.057700
     62 H331        29.8440    -3.2380    33.4300 h1         1 C44       0.054200
     63 H332        29.7350    -4.6380    34.4570 h1         1 C44       0.054200
     64 H341        27.8410    -3.6150    35.7250 hc         1 C44       0.041700
     65 H342        27.9460    -2.1560    34.7370 hc         1 C44       0.041700
     66 H343        27.4750    -3.6860    34.0010 hc         1 C44       0.041700
     67 H422        30.8120    -0.4070    39.8590 h1         1 C44       0.101700
     68 H431        33.4560     0.6250    41.0380 hc         1 C44       0.061700
     69 H432        32.6970    -0.9050    41.4170 hc         1 C44       0.061700
     70 H441        34.5360    -1.1810    39.7550 hc         1 C44       0.055700
     71 H442        32.9940    -1.7190    39.1270 hc         1 C44       0.055700
     72 H451        34.4360     0.9120    38.5240 h1         1 C44       0.074700
     73 H452        34.1790    -0.4120    37.4110 h1         1 C44       0.074700
     74 H561        27.8370     4.7210    37.3180 hc         1 C44       0.053200
     75 H562        29.1660     3.9060    36.5170 hc         1 C44       0.053200
     76 H571        29.5240     6.3110    38.3510 hc         1 C44       0.043700
     77 H572        29.8130     4.6370    38.8000 hc         1 C44       0.043700
     78 H581        31.9240     5.8100    38.0820 hc         1 C44       0.051200
     79 H582        31.5530     4.3890    37.1370 hc         1 C44       0.051200
     80 H67         33.3400     6.6250    36.2640 ha         1 C44       0.129000
     81 H70         29.2680     7.4520    33.6310 ha         1 C44       0.118000
     82 H68         33.4610     8.0080    34.2300 ha         1 C44       0.128000
     83 H69         31.3960     8.4310    32.9100 ha         1 C44       0.127000
     84 H421        30.9780     0.8770    41.0690 h1         1 C44       0.101700
@<TRIPOS>BOND
     1     1     2 1   
     2     1     7 2   
     3     1     8 1   
     4     2     3 1   
     5     2    43 1   
     6     3     4 1   
     7     3     5 1   
     8     3    44 1   
     9     4     6 1   
    10     4    42 1   
    11     4    45 1   
    12     5    14 1   
    13     5    46 1   
    14     5    47 1   
    15     6    20 1   
    16     6    48 1   
    17     6    49 1   
    18     8     9 ar  
    19     8    13 ar  
    20     9    10 ar  
    21     9    52 1   
    22    10    11 ar  
    23    10    21 1   
    24    11    12 ar  
    25    11    54 1   
    26    12    13 ar  
    27    12    41 1   
    28    13    53 1   
    29    14    15 ar  
    30    14    19 ar  
    31    15    16 ar  
    32    15    56 1   
    33    16    17 ar  
    34    16    58 1   
    35    17    18 ar  
    36    17    59 1   
    37    18    19 ar  
    38    18    60 1   
    39    19    57 1   
    40    20    31 1   
    41    20    51 1   
    42    21    22 1   
    43    21    55 1   
    44    22    23 1   
    45    22    62 1   
    46    22    63 1   
    47    23    64 1   
    48    23    65 1   
    49    23    66 1   
    50    24    25 1   
    51    24    29 2   
    52    24    30 2   
    53    24    41 1   
    54    25    26 1   
    55    25    67 1   
    56    25    84 1   
    57    26    27 1   
    58    26    68 1   
    59    26    69 1   
    60    27    28 1   
    61    27    70 1   
    62    27    71 1   
    63    28    41 1   
    64    28    72 1   
    65    28    73 1   
    66    31    32 1   
    67    31    36 1   
    68    31    61 1   
    69    32    33 1   
    70    32    74 1   
    71    32    75 1   
    72    33    34 1   
    73    33    76 1   
    74    33    77 1   
    75    34    35 1   
    76    34    78 1   
    77    34    79 1   
    78    35    36 ar  
    79    35    37 ar  
    80    36    40 ar  
    81    37    38 ar  
    82    37    80 1   
    83    38    39 ar  
    84    38    82 1   
    85    39    40 ar  
    86    39    83 1   
    87    40    81 1   
    88    42    50 1   
@<TRIPOS>SUBSTRUCTURE
     1 C44         1 TEMP              0 ****  ****    0 ROOT
