@<TRIPOS>MOLECULE
C47
   78    79     1     0     0
SMALL
No Charge or Current Charge


@<TRIPOS>ATOM
      1 C1          15.7280    44.6410    69.3290 c3         1 C47       0.150900
      2 O2          15.0550    45.8170    69.8160 os         1 C47      -0.439100
      3 C3          14.4730    45.7620    71.0560 c          1 C47       0.594100
      4 O4          14.4810    44.7690    71.7710 o          1 C47      -0.486000
      5 C5          13.7790    47.0650    71.4720 c6         1 C47      -0.141700
      6 C6          14.4060    47.7500    72.6990 c6         1 C47      -0.017100
      7 C7          13.7220    49.0930    72.9200 ca         1 C47      -0.114300
      8 C8          14.4670    50.1700    73.4380 ca         1 C47      -0.088000
      9 C9          13.8700    51.4280    73.6050 ca         1 C47      -0.119000
     10 C10         12.5250    51.6120    73.2570 ca         1 C47      -0.094000
     11 C11         11.7770    50.5380    72.7450 ca         1 C47      -0.101000
     12 C12         12.3670    49.2680    72.5410 ca         1 C47      -0.030000
     13 N13         11.5560    48.1180    72.1570 n          1 C47      -0.242400
     14 C14         12.2470    46.9330    71.5620 c6         1 C47       0.118000
     15 C15         10.1720    48.0040    72.4870 c          1 C47       0.612100
     16 O16          9.6860    48.6400    73.4160 o          1 C47      -0.574100
     17 C17          9.2450    47.1040    71.6280 c3         1 C47      -0.154400
     18 C18          8.5360    47.8500    70.4450 c3         1 C47      -0.030000
     19 C19          9.5910    48.5610    69.5500 c3         1 C47      -0.091100
     20 C20          7.5650    48.9350    70.9940 c3         1 C47      -0.091100
     21 C21          7.7490    46.8490    69.5240 c3         1 C47      -0.116400
     22 C22          6.5870    46.0130    70.1500 c3         1 C47       0.129500
     23 N23          7.1210    44.8480    70.8950 n8         1 C47      -0.996200
     24 C24          5.5270    45.5470    69.0630 c3         1 C47       0.177300
     25 O25          6.1710    44.6510    68.1460 oh         1 C47      -0.670000
     26 C26          4.2120    44.8650    69.6000 c3         1 C47      -0.062400
     27 C27          3.1700    44.5100    68.5010 c3         1 C47      -0.135700
     28 C28          1.9000    43.8530    69.0930 c3         1 C47      -0.079100
     29 C29          2.8140    45.7460    67.6520 c          1 C47       0.594100
     30 O30          2.2550    46.7300    68.1180 o          1 C47      -0.609100
     31 N31          3.1810    45.6700    66.3270 ns         1 C47      -0.501900
     32 C32          3.0400    46.7580    65.3580 c3         1 C47       0.096000
     33 C33          4.1500    47.8190    65.5240 c3         1 C47      -0.102400
     34 C34          4.1060    48.9490    64.4700 c3         1 C47      -0.070400
     35 C35          2.8450    49.8350    64.5450 c3         1 C47      -0.091100
     36 H1C1        16.1460    44.8260    68.3310 h1         1 C47       0.051033
     37 H1C2        16.5530    44.3580    69.9950 h1         1 C47       0.051033
     38 H1C3        15.0340    43.7940    69.2550 h1         1 C47       0.051033
     39 H5          13.9610    47.7510    70.6340 hc         1 C47       0.090700
     40 H6C1        14.2880    47.1190    73.5910 hc         1 C47       0.065700
     41 H6C2        15.4860    47.8850    72.5430 hc         1 C47       0.065700
     42 H141        11.8570    46.7460    70.5520 h1         1 C47       0.058200
     43 H142        12.0060    46.0540    72.1780 h1         1 C47       0.058200
     44 H8          15.5120    50.0340    73.7090 ha         1 C47       0.113000
     45 H9          14.4490    52.2580    74.0050 ha         1 C47       0.116000
     46 H10         12.0570    52.5850    73.3910 ha         1 C47       0.116000
     47 H11         10.7360    50.7130    72.4870 ha         1 C47       0.127000
     48 H171         9.8060    46.2750    71.1890 hc         1 C47       0.064700
     49 H172         8.4770    46.7050    72.2990 hc         1 C47       0.064700
     50 H191         9.1100    49.0540    68.6950 hc         1 C47       0.040867
     51 H192        10.1390    49.3350    70.1000 hc         1 C47       0.040867
     52 H193        10.3200    47.8450    69.1520 hc         1 C47       0.040867
     53 H201         8.1140    49.7520    71.4790 hc         1 C47       0.040867
     54 H202         6.9720    49.3770    70.1840 hc         1 C47       0.040867
     55 H203         6.8730    48.5200    71.7350 hc         1 C47       0.040867
     56 H211         7.3250    47.4340    68.6970 hc         1 C47       0.040700
     57 H212         8.4650    46.1640    69.0520 hc         1 C47       0.040700
     58 H22          6.0520    46.6550    70.8640 h1         1 C47       0.072700
     59 H231         7.1440    44.0430    70.2580 hn         1 C47       0.400000
     60 H232         8.1070    45.0180    71.1150 hn         1 C47       0.400000
     61 H24          5.2210    46.4540    68.5230 h1         1 C47       0.031700
     62 H25          7.0860    44.9890    68.0470 ho         1 C47       0.436000
     63 H261         4.4810    43.9540    70.1490 hc         1 C47       0.068200
     64 H262         3.7480    45.5400    70.3290 hc         1 C47       0.068200
     65 H27          3.6320    43.7680    67.8390 hc         1 C47       0.064700
     66 H281         1.1980    43.5830    68.2940 hc         1 C47       0.042367
     67 H282         2.1560    42.9390    69.6420 hc         1 C47       0.042367
     68 H283         1.3880    44.5360    69.7820 hc         1 C47       0.042367
     69 H31          3.6530    44.8220    66.0360 hn         1 C47       0.314500
     70 H321         3.0890    46.3320    64.3460 h1         1 C47       0.057700
     71 H322         2.0530    47.2210    65.4830 h1         1 C47       0.057700
     72 H331         4.0900    48.2590    66.5270 hc         1 C47       0.039200
     73 H332         5.1250    47.3210    65.4590 hc         1 C47       0.039200
     74 H341         4.9880    49.5870    64.6040 hc         1 C47       0.036200
     75 H342         4.1830    48.5150    63.4660 hc         1 C47       0.036200
     76 H351         2.7350    50.2710    65.5460 hc         1 C47       0.035033
     77 H352         2.9130    50.6550    63.8210 hc         1 C47       0.035033
     78 H353         1.9420    49.2570    64.3160 hc         1 C47       0.035033
@<TRIPOS>BOND
     1     1     2 1   
     2     1    36 1   
     3     1    37 1   
     4     1    38 1   
     5     2     3 1   
     6     3     4 2   
     7     3     5 1   
     8     5     6 1   
     9     5    14 1   
    10     5    39 1   
    11     6     7 1   
    12     6    40 1   
    13     6    41 1   
    14     7     8 ar  
    15     7    12 ar  
    16     8     9 ar  
    17     8    44 1   
    18     9    10 ar  
    19     9    45 1   
    20    10    11 ar  
    21    10    46 1   
    22    11    12 ar  
    23    11    47 1   
    24    12    13 1   
    25    13    14 1   
    26    13    15 1   
    27    14    42 1   
    28    14    43 1   
    29    15    16 2   
    30    15    17 1   
    31    17    18 1   
    32    17    48 1   
    33    17    49 1   
    34    18    19 1   
    35    18    20 1   
    36    18    21 1   
    37    19    50 1   
    38    19    51 1   
    39    19    52 1   
    40    20    53 1   
    41    20    54 1   
    42    20    55 1   
    43    21    22 1   
    44    21    56 1   
    45    21    57 1   
    46    22    23 1   
    47    22    24 1   
    48    22    58 1   
    49    23    59 1   
    50    23    60 1   
    51    24    25 1   
    52    24    26 1   
    53    24    61 1   
    54    25    62 1   
    55    26    27 1   
    56    26    63 1   
    57    26    64 1   
    58    27    28 1   
    59    27    29 1   
    60    27    65 1   
    61    28    66 1   
    62    28    67 1   
    63    28    68 1   
    64    29    30 2   
    65    29    31 1   
    66    31    32 1   
    67    31    69 1   
    68    32    33 1   
    69    32    70 1   
    70    32    71 1   
    71    33    34 1   
    72    33    72 1   
    73    33    73 1   
    74    34    35 1   
    75    34    74 1   
    76    34    75 1   
    77    35    76 1   
    78    35    77 1   
    79    35    78 1   
@<TRIPOS>SUBSTRUCTURE
     1 C47         1 TEMP              0 ****  ****    0 ROOT
