@<TRIPOS>MOLECULE
C47
   78    79     1     0     0
SMALL
bcc


@<TRIPOS>ATOM
      1 C1          16.0680    44.3900    70.6560 c3         1 C47       0.127700
      2 O2          15.4190    45.6400    70.8930 os         1 C47      -0.415900
      3 C3          14.1020    45.6390    71.0190 c          1 C47       0.643100
      4 O4          13.4210    44.6500    70.9170 o          1 C47      -0.535000
      5 C5          13.5950    47.0300    71.3360 c6         1 C47      -0.141700
      6 C6          13.8690    47.3970    72.8020 c6         1 C47      -0.017100
      7 C7          13.4860    48.8360    72.9440 ca         1 C47      -0.114300
      8 C8          14.3200    49.7860    73.5200 ca         1 C47      -0.106000
      9 C9          13.9630    51.1260    73.5350 ca         1 C47      -0.137000
     10 C10         12.7760    51.5230    72.9320 ca         1 C47      -0.112000
     11 C11         11.9430    50.5880    72.3380 ca         1 C47      -0.119000
     12 C12         12.2850    49.2390    72.3610 ca         1 C47       0.062600
     13 N13         11.4660    48.2460    71.7710 n          1 C47      -0.402000
     14 C14         12.1030    47.1390    71.0460 c6         1 C47       0.118000
     15 C15         10.1150    48.2550    72.0180 c          1 C47       0.679100
     16 O16          9.6270    49.0130    72.8390 o          1 C47      -0.574100
     17 C17          9.2260    47.3270    71.2190 c3         1 C47      -0.154400
     18 C18          8.4950    48.0340    70.0500 c3         1 C47      -0.030000
     19 C19          9.4970    48.7730    69.1580 c3         1 C47      -0.091100
     20 C20          7.4670    49.0430    70.5650 c3         1 C47      -0.091100
     21 C21          7.7900    46.9830    69.1680 c3         1 C47      -0.116400
     22 C22          6.7920    46.0200    69.8450 c3         1 C47       0.129500
     23 N23          7.3740    44.7950    70.3750 n8         1 C47      -0.885800
     24 C24          5.6640    45.6580    68.8660 c3         1 C47       0.154100
     25 O25          6.1590    44.9070    67.7690 oh         1 C47      -0.607800
     26 C26          4.5580    44.8560    69.5350 c3         1 C47      -0.062400
     27 C27          3.4450    44.3700    68.5970 c3         1 C47      -0.135700
     28 C28          2.3620    43.6440    69.3870 c3         1 C47      -0.079100
     29 C29          2.8590    45.5460    67.8340 c          1 C47       0.661100
     30 O30          2.0590    46.3180    68.3480 o          1 C47      -0.609100
     31 N31          3.2900    45.6720    66.5670 ns         1 C47      -0.568900
     32 C32          3.0040    46.8120    65.7270 c3         1 C47       0.096000
     33 C33          4.0550    47.9120    65.8460 c3         1 C47      -0.102400
     34 C34          3.8270    49.0660    64.8740 c3         1 C47      -0.070400
     35 C35          2.5450    49.8470    65.1370 c3         1 C47      -0.091100
     36 H1C1        17.1280    44.6130    70.5880 h1         1 C47       0.051033
     37 H1C2        15.8960    43.6910    71.4740 h1         1 C47       0.051033
     38 H1C3        15.7330    43.9400    69.7210 h1         1 C47       0.051033
     39 H5          14.1540    47.7320    70.7100 hc         1 C47       0.090700
     40 H6C1        13.2740    46.7550    73.4600 hc         1 C47       0.065700
     41 H6C2        14.9170    47.2530    73.0610 hc         1 C47       0.065700
     42 H141        11.9520    47.2530    69.9700 h1         1 C47       0.058200
     43 H142        11.6330    46.2080    71.3530 h1         1 C47       0.058200
     44 H8          15.2600    49.4690    73.9570 ha         1 C47       0.131000
     45 H9          14.6140    51.8580    73.9940 ha         1 C47       0.134000
     46 H10         12.4990    52.5690    72.9130 ha         1 C47       0.134000
     47 H11         11.0340    50.9180    71.8530 ha         1 C47       0.145000
     48 H171         9.7660    46.4700    70.8200 hc         1 C47       0.064700
     49 H172         8.4870    46.9380    71.9230 hc         1 C47       0.064700
     50 H191         8.9810    49.2180    68.3060 hc         1 C47       0.040867
     51 H192        10.0040    49.5820    69.6870 hc         1 C47       0.040867
     52 H193        10.2590    48.0990    68.7610 hc         1 C47       0.040867
     53 H201         7.9360    49.8470    71.1310 hc         1 C47       0.040867
     54 H202         6.9360    49.4950    69.7240 hc         1 C47       0.040867
     55 H203         6.7240    48.5800    71.2170 hc         1 C47       0.040867
     56 H211         7.2740    47.5540    68.3850 hc         1 C47       0.040700
     57 H212         8.5540    46.3890    68.6520 hc         1 C47       0.040700
     58 H22          6.3080    46.5350    70.6810 h1         1 C47       0.072700
     59 H231         7.8970    44.3230    69.6480 hn         1 C47       0.344800
     60 H232         8.0320    44.9980    71.1140 hn         1 C47       0.344800
     61 H24          5.2370    46.6080    68.5110 h1         1 C47       0.031700
     62 H25          6.7190    45.4750    67.2320 ho         1 C47       0.397000
     63 H261         4.9920    43.9870    70.0340 hc         1 C47       0.068200
     64 H262         4.1220    45.4800    70.3210 hc         1 C47       0.068200
     65 H27          3.8830    43.6630    67.8880 hc         1 C47       0.064700
     66 H281         1.5860    43.2440    68.7330 hc         1 C47       0.042367
     67 H282         2.7950    42.8060    69.9360 hc         1 C47       0.042367
     68 H283         1.8870    44.3070    70.1090 hc         1 C47       0.042367
     69 H31          4.0370    45.0620    66.2730 hn         1 C47       0.314500
     70 H321         2.9510    46.4630    64.6920 h1         1 C47       0.057700
     71 H322         2.0160    47.1880    65.9860 h1         1 C47       0.057700
     72 H331         4.0630    48.2890    66.8740 hc         1 C47       0.039200
     73 H332         5.0430    47.4780    65.6650 hc         1 C47       0.039200
     74 H341         4.6800    49.7460    64.9330 hc         1 C47       0.036200
     75 H342         3.8200    48.6780    63.8510 hc         1 C47       0.036200
     76 H351         2.5360    50.2550    66.1490 hc         1 C47       0.035033
     77 H352         2.4450    50.6830    64.4430 hc         1 C47       0.035033
     78 H353         1.6560    49.2250    65.0260 hc         1 C47       0.035033
@<TRIPOS>BOND
     1     1     2 1   
     2     1    36 1   
     3     1    37 1   
     4     1    38 1   
     5     2     3 1   
     6     3     4 2   
     7     3     5 1   
     8     5     6 1   
     9     5    14 1   
    10     5    39 1   
    11     6     7 1   
    12     6    40 1   
    13     6    41 1   
    14     7     8 ar  
    15     7    12 ar  
    16     8     9 ar  
    17     8    44 1   
    18     9    10 ar  
    19     9    45 1   
    20    10    11 ar  
    21    10    46 1   
    22    11    12 ar  
    23    11    47 1   
    24    12    13 1   
    25    13    14 1   
    26    13    15 1   
    27    14    42 1   
    28    14    43 1   
    29    15    16 2   
    30    15    17 1   
    31    17    18 1   
    32    17    48 1   
    33    17    49 1   
    34    18    19 1   
    35    18    20 1   
    36    18    21 1   
    37    19    50 1   
    38    19    51 1   
    39    19    52 1   
    40    20    53 1   
    41    20    54 1   
    42    20    55 1   
    43    21    22 1   
    44    21    56 1   
    45    21    57 1   
    46    22    23 1   
    47    22    24 1   
    48    22    58 1   
    49    23    59 1   
    50    23    60 1   
    51    24    25 1   
    52    24    26 1   
    53    24    61 1   
    54    25    62 1   
    55    26    27 1   
    56    26    63 1   
    57    26    64 1   
    58    27    28 1   
    59    27    29 1   
    60    27    65 1   
    61    28    66 1   
    62    28    67 1   
    63    28    68 1   
    64    29    30 2   
    65    29    31 1   
    66    31    32 1   
    67    31    69 1   
    68    32    33 1   
    69    32    70 1   
    70    32    71 1   
    71    33    34 1   
    72    33    72 1   
    73    33    73 1   
    74    34    35 1   
    75    34    74 1   
    76    34    75 1   
    77    35    76 1   
    78    35    77 1   
    79    35    78 1   
@<TRIPOS>SUBSTRUCTURE
     1 C47         1 TEMP              0 ****  ****    0 ROOT
