@<TRIPOS>MOLECULE
C48
   56    57     1     0     0
SMALL
bcc


@<TRIPOS>ATOM
      1 O1           2.2570    -0.9310    -2.3450 o          1 C48      -0.589100
      2 O2           0.1910    -0.7560     0.0510 o          1 C48      -0.493100
      3 O3           2.0160     1.4670     1.9870 o          1 C48      -0.570100
      4 N5           0.4510    -0.0370     2.6270 ns         1 C48      -0.548900
      5 N8           0.4090     0.4240    -7.2980 nb         1 C48      -0.670000
      6 C9           1.6630     0.1080    -2.1000 c          1 C48       0.678100
      7 C10          1.8120     0.8030    -0.7630 c3         1 C48      -0.262400
      8 C11          0.9900     0.1130     0.2860 c          1 C48       0.507100
      9 C12          1.2090     0.5920     1.7290 c          1 C48       0.559100
     10 C13          0.4930     0.3060     4.0270 c3         1 C48       0.036700
     11 C14         -0.5490    -0.4950     4.8210 c3         1 C48      -0.041100
     12 C15         -1.9390    -0.3000     4.2810 ca         1 C48      -0.095300
     13 C16         -2.5740    -1.3160     3.5720 ca         1 C48      -0.124500
     14 C17         -3.8430    -1.1260     3.0380 ca         1 C48      -0.124000
     15 C18         -4.4940     0.0870     3.2100 ca         1 C48      -0.124000
     16 C19         -3.8700     1.1070     3.9200 ca         1 C48      -0.124000
     17 C20         -2.6030     0.9150     4.4490 ca         1 C48      -0.124500
     18 C21          1.8830     0.1940     4.6700 c          1 C48       0.669100
     19 C22          2.3290    -2.0180     3.6040 c3         1 C48       0.089800
     20 C23          4.0470    -0.8490     4.8710 c3         1 C48       0.089800
     21 C24          0.5240     0.1400    -4.2620 c3         1 C48       0.107000
     22 C25         -0.2740     1.1370    -5.0940 c3         1 C48      -0.143700
     23 C26         -0.6030     0.5640    -6.4430 ca         1 C48       0.413600
     24 C27         -1.8990     0.1740    -6.7640 ca         1 C48      -0.239300
     25 C28         -2.1480    -0.3760    -8.0120 ca         1 C48      -0.088000
     26 C29         -1.0940    -0.5220    -8.9000 ca         1 C48      -0.246300
     27 C30          0.1640    -0.1050    -8.4900 ca         1 C48       0.409200
     28 HN5         -0.2170    -0.7180     2.2940 hn         1 C48       0.345500
     29 HN7          0.3560     1.5440    -2.6830 hn         1 C48       0.311500
     30 H101         1.5100     1.8550    -0.7920 hc         1 C48       0.101700
     31 H102         2.8620     0.8000    -0.4630 hc         1 C48       0.101700
     32 H13          0.2430     1.3650     4.1320 h1         1 C48       0.090700
     33 H141        -0.3020    -1.5580     4.8240 hc         1 C48       0.065700
     34 H142        -0.4920    -0.1620     5.8590 hc         1 C48       0.065700
     35 H16         -2.0770    -2.2720     3.4440 ha         1 C48       0.132000
     36 H17         -4.3200    -1.9270     2.4900 ha         1 C48       0.134000
     37 H18         -5.4820     0.2390     2.7960 ha         1 C48       0.133000
     38 H19         -4.3740     2.0550     4.0620 ha         1 C48       0.134000
     39 H20         -2.1270     1.7160     5.0020 ha         1 C48       0.132000
     40 H221         2.7880    -2.8840     4.0790 h1         1 C48       0.041867
     41 H222         1.2610    -2.1970     3.5910 h1         1 C48       0.041867
     42 H223         2.6890    -1.9690     2.5740 h1         1 C48       0.041867
     43 H231         4.3690     0.1490     5.1490 h1         1 C48       0.041867
     44 H232         4.1360    -1.5030     5.7410 h1         1 C48       0.041867
     45 H233         4.7150    -1.2250     4.0960 h1         1 C48       0.041867
     46 H241         1.4490    -0.1140    -4.7820 h1         1 C48       0.063700
     47 H242        -0.0460    -0.7870    -4.1460 h1         1 C48       0.063700
     48 H251        -1.1960     1.4030    -4.5720 hc         1 C48       0.056200
     49 H252         0.3080     2.0540    -5.2180 hc         1 C48       0.056200
     50 H27         -2.6990     0.2990    -6.0460 ha         1 C48       0.140000
     51 H28         -3.1490    -0.6840    -8.2860 ha         1 C48       0.138000
     52 H29         -1.2370    -0.9460    -9.8840 ha         1 C48       0.143000
     53 H30          1.0130    -0.2020    -9.1580 h4         1 C48       0.021100
     54 N6           2.6900    -0.8340     4.3600 n          1 C48      -0.467800
     55 O4           2.2000     1.0620     5.4730 o          1 C48      -0.595100
     56 N7           0.8340     0.7030    -2.9650 ns         1 C48      -0.570900
@<TRIPOS>BOND
     1     1     6 2   
     2     2     8 2   
     3     3     9 2   
     4     4     9 1   
     5     4    10 1   
     6     4    28 1   
     7     5    23 ar  
     8     5    27 ar  
     9     6     7 1   
    10     6    56 1   
    11     7     8 1   
    12     7    30 1   
    13     7    31 1   
    14     8     9 1   
    15    10    11 1   
    16    10    18 1   
    17    10    32 1   
    18    11    12 1   
    19    11    33 1   
    20    11    34 1   
    21    12    13 ar  
    22    12    17 ar  
    23    13    14 ar  
    24    13    35 1   
    25    14    15 ar  
    26    14    36 1   
    27    15    16 ar  
    28    15    37 1   
    29    16    17 ar  
    30    16    38 1   
    31    17    39 1   
    32    18    54 1   
    33    18    55 2   
    34    19    40 1   
    35    19    41 1   
    36    19    42 1   
    37    19    54 1   
    38    20    43 1   
    39    20    44 1   
    40    20    45 1   
    41    20    54 1   
    42    21    22 1   
    43    21    46 1   
    44    21    47 1   
    45    21    56 1   
    46    22    23 1   
    47    22    48 1   
    48    22    49 1   
    49    23    24 ar  
    50    24    25 ar  
    51    24    50 1   
    52    25    26 ar  
    53    25    51 1   
    54    26    27 ar  
    55    26    52 1   
    56    27    53 1   
    57    29    56 1   
@<TRIPOS>SUBSTRUCTURE
     1 C48         1 TEMP              0 ****  ****    0 ROOT
