@<TRIPOS>MOLECULE
C48
   56    57     1     0     0
SMALL
No Charge or Current Charge


@<TRIPOS>ATOM
      1 O1           2.1840     1.3230    -1.2500 o          1 C48      -0.589100
      2 O2          -1.3520     1.6840     0.2920 o          1 C48      -0.493100
      3 O3           1.6030     2.0560     2.2580 o          1 C48      -0.570100
      4 N5          -0.0210     0.4640     2.4850 ns         1 C48      -0.481900
      5 N8           0.3180     0.2090    -6.9410 nb         1 C48      -0.670000
      6 C9           1.1690     1.9590    -1.4810 c          1 C48       0.611100
      7 C10          0.5660     2.9010    -0.4680 c3         1 C48      -0.262400
      8 C11         -0.1950     2.0300     0.5230 c          1 C48       0.507100
      9 C12          0.5710     1.5390     1.8410 c          1 C48       0.492100
     10 C13          0.4920    -0.1520     3.7300 c3         1 C48       0.036700
     11 C14         -0.5770    -1.0560     4.3950 c3         1 C48      -0.041100
     12 C15         -1.9340    -0.3710     4.5280 ca         1 C48      -0.095300
     13 C16         -3.0320    -0.8060     3.7590 ca         1 C48      -0.106500
     14 C17         -4.2780    -0.1650     3.8760 ca         1 C48      -0.106000
     15 C18         -4.4340     0.9130     4.7640 ca         1 C48      -0.106000
     16 C19         -3.3440     1.3490     5.5350 ca         1 C48      -0.106000
     17 C20         -2.0980     0.7090     5.4180 ca         1 C48      -0.106500
     18 C21          1.8540    -0.9040     3.5460 c          1 C48       0.602100
     19 C22          1.1840    -1.9760     1.3290 c3         1 C48       0.089800
     20 C23          3.5710    -2.0420     2.1120 c3         1 C48       0.089800
     21 C24          0.8880     0.9980    -3.7870 c3         1 C48       0.107000
     22 C25         -0.3320     0.5520    -4.6110 c3         1 C48      -0.143700
     23 C26          0.0620    -0.3750    -5.7470 ca         1 C48       0.348300
     24 C27          0.1620    -1.7650    -5.5440 ca         1 C48      -0.156000
     25 C28          0.5370    -2.5910    -6.6160 ca         1 C48      -0.070000
     26 C29          0.7990    -1.9840    -7.8550 ca         1 C48      -0.163000
     27 C30          0.6790    -0.5890    -7.9740 ca         1 C48       0.343900
     28 HN5         -0.9010     0.1320     2.1010 hn         1 C48       0.345500
     29 HN7         -0.3410     2.4320    -2.7770 hn         1 C48       0.311500
     30 H101        -0.1410     3.5810    -0.9550 hc         1 C48       0.101700
     31 H102         1.3890     3.4070     0.0460 hc         1 C48       0.101700
     32 H13          0.7030     0.6700     4.4270 h1         1 C48       0.090700
     33 H141        -0.6780    -1.9870     3.8270 hc         1 C48       0.065700
     34 H142        -0.2160    -1.3540     5.3880 hc         1 C48       0.065700
     35 H16         -2.9230    -1.6390     3.0670 ha         1 C48       0.114000
     36 H17         -5.1210    -0.5040     3.2780 ha         1 C48       0.116000
     37 H18         -5.3980     1.4080     4.8540 ha         1 C48       0.115000
     38 H19         -3.4640     2.1830     6.2240 ha         1 C48       0.116000
     39 H20         -1.2600     1.0540     6.0200 ha         1 C48       0.114000
     40 H221         1.5270    -2.8850     0.8180 h1         1 C48       0.041867
     41 H222         0.2320    -2.2050     1.8210 h1         1 C48       0.041867
     42 H223         1.0290    -1.1910     0.5780 h1         1 C48       0.041867
     43 H231         4.3020    -1.2780     2.4070 h1         1 C48       0.041867
     44 H232         3.7250    -2.9430     2.7200 h1         1 C48       0.041867
     45 H233         3.7350    -2.2890     1.0550 h1         1 C48       0.041867
     46 H241         1.5920     1.5430    -4.4300 h1         1 C48       0.063700
     47 H242         1.4020     0.1090    -3.3930 h1         1 C48       0.063700
     48 H251        -1.0460     0.0450    -3.9500 hc         1 C48       0.056200
     49 H252        -0.8480     1.4380    -5.0030 hc         1 C48       0.056200
     50 H27         -0.0490    -2.1940    -4.5680 ha         1 C48       0.122000
     51 H28          0.6220    -3.6690    -6.4900 ha         1 C48       0.120000
     52 H29          1.0930    -2.5790    -8.7150 ha         1 C48       0.125000
     53 H30          0.8780    -0.0930    -8.9240 h4         1 C48       0.021100
     54 N6           2.1970    -1.5320     2.3150 n          1 C48      -0.400800
     55 O4           2.6770    -0.8740     4.4550 o          1 C48      -0.595100
     56 N7           0.4930     1.8660    -2.6750 ns         1 C48      -0.503900
@<TRIPOS>BOND
     1     1     6 2   
     2     2     8 2   
     3     3     9 2   
     4     4     9 1   
     5     4    10 1   
     6     4    28 1   
     7     5    23 ar  
     8     5    27 ar  
     9     6     7 1   
    10     6    56 1   
    11     7     8 1   
    12     7    30 1   
    13     7    31 1   
    14     8     9 1   
    15    10    11 1   
    16    10    18 1   
    17    10    32 1   
    18    11    12 1   
    19    11    33 1   
    20    11    34 1   
    21    12    13 ar  
    22    12    17 ar  
    23    13    14 ar  
    24    13    35 1   
    25    14    15 ar  
    26    14    36 1   
    27    15    16 ar  
    28    15    37 1   
    29    16    17 ar  
    30    16    38 1   
    31    17    39 1   
    32    18    54 1   
    33    18    55 2   
    34    19    40 1   
    35    19    41 1   
    36    19    42 1   
    37    19    54 1   
    38    20    43 1   
    39    20    44 1   
    40    20    45 1   
    41    20    54 1   
    42    21    22 1   
    43    21    46 1   
    44    21    47 1   
    45    21    56 1   
    46    22    23 1   
    47    22    48 1   
    48    22    49 1   
    49    23    24 ar  
    50    24    25 ar  
    51    24    50 1   
    52    25    26 ar  
    53    25    51 1   
    54    26    27 ar  
    55    26    52 1   
    56    27    53 1   
    57    29    56 1   
@<TRIPOS>SUBSTRUCTURE
     1 C48         1 TEMP              0 ****  ****    0 ROOT
