@<TRIPOS>MOLECULE
C4A
   71    74     1     0     0
SMALL
No Charge or Current Charge


@<TRIPOS>ATOM
      1 N1          10.1070    -1.6980    -2.4780 n8         1 C4A      -0.994200
      2 C2           9.0320    -0.7180    -2.2370 c3         1 C4A       0.149800
      3 C4           6.9340    -0.1870    -0.8490 c3         1 C4A      -0.075400
      4 C5           5.9700    -0.6560     0.2670 c3         1 C4A      -0.082400
      5 C6           4.7640     0.2910     0.5190 c3         1 C4A       0.045700
      6 C3           8.0710    -1.1940    -1.1280 c3         1 C4A      -0.080400
      7 O9           5.2060     2.7290    -1.0530 o          1 C4A      -0.542000
      8 N7           5.2020     1.6340     0.9670 ns         1 C4A      -0.489900
      9 O10          5.8110     3.7650     0.9100 os         1 C4A      -0.459100
     10 C11          6.0710     5.0080     0.2380 c3         1 C4A       0.185600
     11 C12          6.5290     6.0190     1.3010 c3         1 C4A      -0.100100
     12 C15          2.7840    -1.3500     1.0260 cc         1 C4A       0.478500
     13 N16          2.7510    -1.7410    -0.2460 nd         1 C4A      -0.348300
     14 O17          1.7060    -2.6900    -0.2700 os         1 C4A      -0.075700
     15 C18          1.2330    -2.7570     1.0020 cd         1 C4A       0.477300
     16 C19          0.0900    -3.6670     1.3540 c3         1 C4A      -0.064400
     17 C20         -1.2580    -3.1780     0.8350 ca         1 C4A      -0.080300
     18 C21         -1.7630    -3.6440    -0.3910 ca         1 C4A      -0.101000
     19 C22         -3.0020    -3.1850    -0.8700 ca         1 C4A      -0.071500
     20 C23         -3.7640    -2.2490    -0.1340 ca         1 C4A      -0.140600
     21 C24         -3.2450    -1.7830     1.0990 ca         1 C4A      -0.071500
     22 C25         -2.0050    -2.2440     1.5740 ca         1 C4A      -0.101000
     23 C26         -5.0970    -1.7770    -0.6850 c          1 C4A       0.613700
     24 O27         -5.5330    -2.1850    -1.7540 o          1 C4A      -0.596100
     25 N28         -5.7910    -0.8630     0.0880 ns         1 C4A      -0.493900
     26 C29         -7.0760    -0.3490    -0.4100 c5         1 C4A       0.101700
     27 C30         -7.8110     0.2530     0.8520 c5         1 C4A      -0.047600
     28 C31         -8.3990     1.5030     0.2530 ca         1 C4A      -0.088800
     29 C32         -7.8050     1.8430    -0.9470 ca         1 C4A      -0.088800
     30 C33         -6.7240     0.8740    -1.3480 c5         1 C4A      -0.047600
     31 C34         -8.2100     2.9860    -1.6550 ca         1 C4A      -0.093000
     32 C35         -9.2400     3.7870    -1.1250 ca         1 C4A      -0.110000
     33 C36         -9.8470     3.4400     0.1010 ca         1 C4A      -0.110000
     34 C37         -9.4250     2.2910     0.7990 ca         1 C4A      -0.093000
     35 N38          1.8540    -1.9580     1.8410 nc         1 C4A      -0.672000
     36 C13          3.7600    -0.3200     1.5440 c          1 C4A       0.483600
     37 HN11         9.6920    -2.5680    -2.8320 hn         1 C4A       0.392000
     38 HN12        10.6860    -1.3730    -3.2630 hn         1 C4A       0.392000
     39 H21A         8.4750    -0.5680    -3.1720 h1         1 C4A       0.027700
     40 H22A         9.4880     0.2390    -1.9460 h1         1 C4A       0.027700
     41 H41          6.3640    -0.0210    -1.7720 hc         1 C4A       0.047200
     42 H42          7.3780     0.7760    -0.5680 hc         1 C4A       0.047200
     43 H51          6.5320    -0.7770     1.2020 hc         1 C4A       0.056700
     44 H52          5.5920    -1.6520     0.0010 hc         1 C4A       0.056700
     45 H6           4.2160     0.4110    -0.4260 h1         1 C4A       0.103700
     46 H31          8.6400    -1.3600    -0.2040 hc         1 C4A       0.047200
     47 H32          7.6350    -2.1590    -1.4170 hc         1 C4A       0.047200
     48 HN7          5.3790     1.7900     1.9520 hn         1 C4A       0.335500
     49 H111         5.1660     5.3830    -0.2580 h1         1 C4A       0.050200
     50 H112         6.8590     4.8880    -0.5170 h1         1 C4A       0.050200
     51 H121         6.7410     6.9890     0.8350 hc         1 C4A       0.047700
     52 H122         5.7490     6.1640     2.0580 hc         1 C4A       0.047700
     53 H123         7.4410     5.6700     1.7990 hc         1 C4A       0.047700
     54 H191         0.3030    -4.6670     0.9610 hc         1 C4A       0.086200
     55 H192         0.0460    -3.7860     2.4420 hc         1 C4A       0.086200
     56 H21         -1.1960    -4.3630    -0.9790 ha         1 C4A       0.123500
     57 H22         -3.3680    -3.5640    -1.8220 ha         1 C4A       0.128500
     58 H24         -3.7860    -1.0620     1.7050 ha         1 C4A       0.128500
     59 H25         -1.6240    -1.8710     2.5230 ha         1 C4A       0.123500
     60 H28         -5.3690    -0.5710     0.9590 hn         1 C4A       0.312500
     61 H29         -7.7020    -1.0940    -0.9220 h1         1 C4A       0.088700
     62 H301        -8.5690    -0.4320     1.2480 hc         1 C4A       0.059450
     63 H302        -7.1280     0.5020     1.6730 hc         1 C4A       0.059450
     64 H331        -5.7310     1.2950    -1.1470 hc         1 C4A       0.059450
     65 H332        -6.7610     0.6010    -2.4080 hc         1 C4A       0.059450
     66 H34         -7.7370     3.2490    -2.5990 ha         1 C4A       0.115000
     67 H35         -9.5670     4.6750    -1.6600 ha         1 C4A       0.112500
     68 H36        -10.6410     4.0620     0.5090 ha         1 C4A       0.112500
     69 H37         -9.8860     2.0200     1.7460 ha         1 C4A       0.115000
     70 C8           5.3910     2.7150     0.1530 c          1 C4A       0.641100
     71 O14          3.7790     0.0490     2.7200 o          1 C4A      -0.453100
@<TRIPOS>BOND
     1     1     2 1   
     2     1    37 1   
     3     1    38 1   
     4     2     6 1   
     5     2    39 1   
     6     2    40 1   
     7     3     4 1   
     8     3     6 1   
     9     3    41 1   
    10     3    42 1   
    11     4     5 1   
    12     4    43 1   
    13     4    44 1   
    14     5     8 1   
    15     5    36 1   
    16     5    45 1   
    17     6    46 1   
    18     6    47 1   
    19     7    70 2   
    20     8    48 1   
    21     8    70 1   
    22     9    10 1   
    23     9    70 1   
    24    10    11 1   
    25    10    49 1   
    26    10    50 1   
    27    11    51 1   
    28    11    52 1   
    29    11    53 1   
    30    12    13 2   
    31    12    35 1   
    32    12    36 1   
    33    13    14 1   
    34    14    15 1   
    35    15    16 1   
    36    15    35 2   
    37    16    17 1   
    38    16    54 1   
    39    16    55 1   
    40    17    18 ar  
    41    17    22 ar  
    42    18    19 ar  
    43    18    56 1   
    44    19    20 ar  
    45    19    57 1   
    46    20    21 ar  
    47    20    23 1   
    48    21    22 ar  
    49    21    58 1   
    50    22    59 1   
    51    23    24 2   
    52    23    25 1   
    53    25    26 1   
    54    25    60 1   
    55    26    27 1   
    56    26    30 1   
    57    26    61 1   
    58    27    28 1   
    59    27    62 1   
    60    27    63 1   
    61    28    29 ar  
    62    28    34 ar  
    63    29    30 1   
    64    29    31 ar  
    65    30    64 1   
    66    30    65 1   
    67    31    32 ar  
    68    31    66 1   
    69    32    33 ar  
    70    32    67 1   
    71    33    34 ar  
    72    33    68 1   
    73    34    69 1   
    74    36    71 2   
@<TRIPOS>SUBSTRUCTURE
     1 C4A         1 TEMP              0 ****  ****    0 ROOT
