@<TRIPOS>MOLECULE
C4A
   71    74     1     0     0
SMALL
abcg2


@<TRIPOS>ATOM
      1 N1           9.8010    -1.9230    -2.9140 n8         1 C4A      -0.994200
      2 C2           8.6900    -1.0000    -2.7280 c3         1 C4A       0.149800
      3 C4           6.7630    -0.3610    -1.2190 c3         1 C4A      -0.075400
      4 C5           5.9610    -0.7240     0.0250 c3         1 C4A      -0.082400
      5 C6           4.7900     0.2360     0.2740 c3         1 C4A       0.045700
      6 C3           7.9230    -1.3190    -1.4540 c3         1 C4A      -0.080400
      7 O9           3.2410     2.5100     0.5330 o          1 C4A      -0.542000
      8 N7           5.2820     1.5350     0.6310 ns         1 C4A      -0.489900
      9 O10          5.0620     3.6620     1.2000 os         1 C4A      -0.459100
     10 C11          4.2820     4.8490     1.3890 c3         1 C4A       0.185600
     11 C12          5.2080     5.9290     1.8950 c3         1 C4A      -0.100100
     12 C15          2.9120    -1.3690     0.9710 cc         1 C4A       0.478500
     13 N16          2.6840    -1.6730    -0.2690 nd         1 C4A      -0.348300
     14 O17          1.7240    -2.6260    -0.1980 os         1 C4A      -0.075700
     15 C18          1.4480    -2.8200     1.0920 cd         1 C4A       0.477300
     16 C19          0.3890    -3.7950     1.4500 c3         1 C4A      -0.064400
     17 C20         -0.9680    -3.2890     1.0210 ca         1 C4A      -0.080300
     18 C21         -1.5750    -3.7670    -0.1340 ca         1 C4A      -0.101000
     19 C22         -2.8110    -3.2810    -0.5290 ca         1 C4A      -0.071500
     20 C23         -3.4520    -2.2920     0.2110 ca         1 C4A      -0.140600
     21 C24         -2.8460    -1.8200     1.3740 ca         1 C4A      -0.071500
     22 C25         -1.6170    -2.3170     1.7740 ca         1 C4A      -0.101000
     23 C26         -4.7860    -1.8050    -0.2600 c          1 C4A       0.613700
     24 O27         -5.5130    -2.5170    -0.9400 o          1 C4A      -0.596100
     25 N28         -5.1170    -0.5570     0.1150 ns         1 C4A      -0.493900
     26 C29         -6.3470     0.0930    -0.2610 c5         1 C4A       0.101700
     27 C30         -6.8620     1.0530     0.8240 c5         1 C4A      -0.047600
     28 C31         -7.6900     2.0230     0.0310 ca         1 C4A      -0.088800
     29 C32         -7.3450     1.9660    -1.3190 ca         1 C4A      -0.088800
     30 C33         -6.2550     0.9560    -1.5360 c5         1 C4A      -0.047600
     31 C34         -7.9740     2.7880    -2.2400 ca         1 C4A      -0.093000
     32 C35         -8.9570     3.6680    -1.8000 ca         1 C4A      -0.110000
     33 C36         -9.3040     3.7230    -0.4540 ca         1 C4A      -0.110000
     34 C37         -8.6700     2.8980     0.4710 ca         1 C4A      -0.093000
     35 N38          2.1550    -2.0660     1.8610 nc         1 C4A      -0.672000
     36 C13          3.9040    -0.3330     1.3720 c          1 C4A       0.483600
     37 HN11         9.4340    -2.8510    -3.0870 hn         1 C4A       0.392000
     38 HN12        10.3060    -1.6730    -3.7540 hn         1 C4A       0.392000
     39 H21A         7.9850    -0.9870    -3.5720 h1         1 C4A       0.027700
     40 H22A         9.0960     0.0130    -2.6550 h1         1 C4A       0.027700
     41 H41          6.0960    -0.3690    -2.0870 hc         1 C4A       0.047200
     42 H42          7.1490     0.6590    -1.1360 hc         1 C4A       0.047200
     43 H51          6.6060    -0.7360     0.9090 hc         1 C4A       0.056700
     44 H52          5.5710    -1.7380    -0.0860 hc         1 C4A       0.056700
     45 H6           4.2050     0.3020    -0.6480 h1         1 C4A       0.103700
     46 H31          8.6090    -1.2870    -0.6030 hc         1 C4A       0.047200
     47 H32          7.5420    -2.3450    -1.5080 hc         1 C4A       0.047200
     48 HN7          6.2210     1.6190     0.9890 hn         1 C4A       0.335500
     49 H111         3.4810     4.6600     2.1060 h1         1 C4A       0.050200
     50 H112         3.8240     5.1460     0.4430 h1         1 C4A       0.050200
     51 H121         4.6400     6.8480     2.0370 hc         1 C4A       0.047700
     52 H122         5.6540     5.6590     2.8520 hc         1 C4A       0.047700
     53 H123         6.0080     6.1370     1.1840 hc         1 C4A       0.047700
     54 H191         0.6100    -4.7550     0.9800 hc         1 C4A       0.086200
     55 H192         0.4270    -3.9400     2.5290 hc         1 C4A       0.086200
     56 H21         -1.0860    -4.5290    -0.7290 ha         1 C4A       0.123500
     57 H22         -3.2760    -3.6680    -1.4260 ha         1 C4A       0.128500
     58 H24         -3.3340    -1.0830     1.9990 ha         1 C4A       0.128500
     59 H25         -1.1640    -1.9470     2.6870 ha         1 C4A       0.123500
     60 H28         -4.4050     0.0280     0.5250 hn         1 C4A       0.312500
     61 H29         -7.0990    -0.6800    -0.4210 h1         1 C4A       0.088700
     62 H301        -7.4150     0.5380     1.6090 hc         1 C4A       0.059450
     63 H302        -6.0260     1.5750     1.3050 hc         1 C4A       0.059450
     64 H331        -5.2790     1.4510    -1.5880 hc         1 C4A       0.059450
     65 H332        -6.3680     0.3680    -2.4470 hc         1 C4A       0.059450
     66 H34         -7.7090     2.7470    -3.2900 ha         1 C4A       0.115000
     67 H35         -9.4600     4.3140    -2.5090 ha         1 C4A       0.112500
     68 H36        -10.0750     4.4070    -0.1250 ha         1 C4A       0.112500
     69 H37         -8.9460     2.9410     1.5180 ha         1 C4A       0.115000
     70 C8           4.4290     2.5710     0.7760 c          1 C4A       0.641100
     71 O14          3.9860    -0.0090     2.5270 o          1 C4A      -0.453100
@<TRIPOS>BOND
     1     1     2 1   
     2     1    37 1   
     3     1    38 1   
     4     2     6 1   
     5     2    39 1   
     6     2    40 1   
     7     3     4 1   
     8     3     6 1   
     9     3    41 1   
    10     3    42 1   
    11     4     5 1   
    12     4    43 1   
    13     4    44 1   
    14     5     8 1   
    15     5    36 1   
    16     5    45 1   
    17     6    46 1   
    18     6    47 1   
    19     7    70 2   
    20     8    48 1   
    21     8    70 1   
    22     9    10 1   
    23     9    70 1   
    24    10    11 1   
    25    10    49 1   
    26    10    50 1   
    27    11    51 1   
    28    11    52 1   
    29    11    53 1   
    30    12    13 2   
    31    12    35 1   
    32    12    36 1   
    33    13    14 1   
    34    14    15 1   
    35    15    16 1   
    36    15    35 2   
    37    16    17 1   
    38    16    54 1   
    39    16    55 1   
    40    17    18 ar  
    41    17    22 ar  
    42    18    19 ar  
    43    18    56 1   
    44    19    20 ar  
    45    19    57 1   
    46    20    21 ar  
    47    20    23 1   
    48    21    22 ar  
    49    21    58 1   
    50    22    59 1   
    51    23    24 2   
    52    23    25 1   
    53    25    26 1   
    54    25    60 1   
    55    26    27 1   
    56    26    30 1   
    57    26    61 1   
    58    27    28 1   
    59    27    62 1   
    60    27    63 1   
    61    28    29 ar  
    62    28    34 ar  
    63    29    30 1   
    64    29    31 ar  
    65    30    64 1   
    66    30    65 1   
    67    31    32 ar  
    68    31    66 1   
    69    32    33 ar  
    70    32    67 1   
    71    33    34 ar  
    72    33    68 1   
    73    34    69 1   
    74    36    71 2   
@<TRIPOS>SUBSTRUCTURE
     1 C4A         1 TEMP              0 ****  ****    0 ROOT
