@<TRIPOS>MOLECULE
C4B
   33    34     1     0     0
SMALL
No Charge or Current Charge


@<TRIPOS>ATOM
      1 C1           0.1350    -0.2480     0.4740 c6         1 C4B       0.346700
      2 C2           0.6950    -1.5750    -0.1400 c6         1 C4B       0.135300
      3 O2           0.0130    -2.7510     0.3490 oh         1 C4B      -0.711000
      4 C3           2.2130    -1.6720     0.1830 c6         1 C4B       0.135300
      5 O3           2.7830    -2.8480    -0.4160 oh         1 C4B      -0.662000
      6 C4           2.9630    -0.3980    -0.3100 c6         1 C4B       0.099300
      7 O4           4.3650    -0.5060     0.0260 oh         1 C4B      -0.721000
      8 C5           2.2950     0.8660     0.3290 c6         1 C4B       0.152300
      9 O5           0.8820     0.8940    -0.0020 os         1 C4B      -0.437000
     10 C6           2.9320     2.2080    -0.1590 c3         1 C4B       0.170600
     11 O6           2.2860     3.3760     0.3860 oh         1 C4B      -0.702000
     12 N1          -1.3030    -0.0390     0.1720 n          1 C4B      -0.365400
     13 C7          -2.2220    -0.1910     1.2110 c          1 C4B       0.645000
     14 O1          -1.9190    -0.5010     2.3510 o          1 C4B      -0.521000
     15 N3          -3.5150     0.0460     0.8800 ns         1 C4B      -0.477000
     16 C8          -3.9990     0.4090    -0.3250 c          1 C4B       0.639000
     17 O7          -5.1780     0.6080    -0.5410 o          1 C4B      -0.529000
     18 N5          -3.0400     0.5260    -1.2670 ns         1 C4B      -0.477000
     19 C9          -1.7070     0.3220    -1.1180 c          1 C4B       0.645000
     20 O8          -0.9600     0.4260    -2.0760 o          1 C4B      -0.521000
     21 H1           0.2630    -0.3050     1.5650 h2         1 C4B       0.090700
     22 H2           0.5890    -1.5130    -1.2330 h1         1 C4B       0.079700
     23 HO2          0.6260    -3.5010     0.1490 ho         1 C4B       0.527000
     24 H3           2.3270    -1.7250     1.2770 h1         1 C4B       0.057700
     25 HO3          3.7570    -2.6950    -0.3910 ho         1 C4B       0.465000
     26 H4           2.8420    -0.3310    -1.4030 h1         1 C4B       0.062700
     27 HO4          4.8740     0.0420    -0.6180 ho         1 C4B       0.513000
     28 H5           2.4010     0.8190     1.4230 h1         1 C4B       0.068700
     29 H6           3.9940     2.2100     0.1210 h1         1 C4B       0.028200
     30 H6'A         2.8830     2.2310    -1.2570 h1         1 C4B       0.028200
     31 HO6          2.7060     4.1610    -0.0360 ho         1 C4B       0.506000
     32 HN3         -4.1910    -0.0570     1.6200 hn         1 C4B       0.364000
     33 HN5         -3.3500     0.7870    -2.1890 hn         1 C4B       0.364000
@<TRIPOS>BOND
     1     1     2 1   
     2     1     9 1   
     3     1    12 1   
     4     1    21 1   
     5     2     3 1   
     6     2     4 1   
     7     2    22 1   
     8     3    23 1   
     9     4     5 1   
    10     4     6 1   
    11     4    24 1   
    12     5    25 1   
    13     6     7 1   
    14     6     8 1   
    15     6    26 1   
    16     7    27 1   
    17     8     9 1   
    18     8    10 1   
    19     8    28 1   
    20    10    11 1   
    21    10    29 1   
    22    10    30 1   
    23    11    31 1   
    24    12    13 1   
    25    12    19 1   
    26    13    14 2   
    27    13    15 1   
    28    15    16 1   
    29    15    32 1   
    30    16    17 2   
    31    16    18 1   
    32    18    19 1   
    33    18    33 1   
    34    19    20 2   
@<TRIPOS>SUBSTRUCTURE
     1 C4B         1 TEMP              0 ****  ****    0 ROOT
