@<TRIPOS>MOLECULE
C4B
   33    34     1     0     0
SMALL
bcc


@<TRIPOS>ATOM
      1 C1           0.1920    -0.2500     0.3970 c6         1 C4B       0.323500
      2 C2           0.7430    -1.5280    -0.2320 c6         1 C4B       0.112100
      3 O2          -0.0010    -2.5900     0.3040 oh         1 C4B      -0.588800
      4 C3           2.2230    -1.6100     0.1230 c6         1 C4B       0.112100
      5 O3           2.7460    -2.7460    -0.5150 oh         1 C4B      -0.599800
      6 C4           2.9390    -0.3320    -0.3010 c6         1 C4B       0.076100
      7 O4           4.2770    -0.4400     0.1310 oh         1 C4B      -0.598800
      8 C5           2.2410     0.8830     0.3230 c6         1 C4B       0.129100
      9 O5           0.8720     0.8850    -0.0380 os         1 C4B      -0.390600
     10 C6           2.8410     2.1860    -0.1540 c3         1 C4B       0.147400
     11 O6           2.2360     3.2520     0.5350 oh         1 C4B      -0.579800
     12 N1          -1.2270    -0.0520     0.1450 n          1 C4B      -0.499400
     13 C7          -2.0800    -0.0240     1.2410 c          1 C4B       0.854500
     14 O1          -1.7040    -0.1600     2.3790 o          1 C4B      -0.596500
     15 N3          -3.4030     0.1730     0.9450 ns         1 C4B      -0.611000
     16 C8          -3.9440     0.3640    -0.2980 c          1 C4B       0.848500
     17 O7          -5.1210     0.5450    -0.4880 o          1 C4B      -0.604500
     18 N5          -3.0140     0.3280    -1.3010 ns         1 C4B      -0.611000
     19 C9          -1.6640     0.1270    -1.1600 c          1 C4B       0.854500
     20 O8          -0.9280     0.1110    -2.1130 o          1 C4B      -0.596500
     21 H1           0.2850    -0.3570     1.4830 h2         1 C4B       0.090700
     22 H2           0.6560    -1.4850    -1.3230 h1         1 C4B       0.079700
     23 HO2          0.2980    -3.4080    -0.1060 ho         1 C4B       0.428000
     24 H3           2.3100    -1.7030     1.2190 h1         1 C4B       0.057700
     25 HO3          3.6710    -2.8370    -0.2610 ho         1 C4B       0.426000
     26 H4           2.8800    -0.2450    -1.3960 h1         1 C4B       0.062700
     27 HO4          4.8470     0.0300    -0.4830 ho         1 C4B       0.414000
     28 H5           2.3430     0.8210     1.4190 h1         1 C4B       0.068700
     29 H6           3.9210     2.1520     0.0290 h1         1 C4B       0.028200
     30 H6'A         2.7000     2.2650    -1.2410 h1         1 C4B       0.028200
     31 HO6          2.6920     4.0610     0.2890 ho         1 C4B       0.407000
     32 HN3         -4.0400     0.1950     1.7320 hn         1 C4B       0.364000
     33 HN5         -3.3490     0.4630    -2.2470 hn         1 C4B       0.364000
@<TRIPOS>BOND
     1     1     2 1   
     2     1     9 1   
     3     1    12 1   
     4     1    21 1   
     5     2     3 1   
     6     2     4 1   
     7     2    22 1   
     8     3    23 1   
     9     4     5 1   
    10     4     6 1   
    11     4    24 1   
    12     5    25 1   
    13     6     7 1   
    14     6     8 1   
    15     6    26 1   
    16     7    27 1   
    17     8     9 1   
    18     8    10 1   
    19     8    28 1   
    20    10    11 1   
    21    10    29 1   
    22    10    30 1   
    23    11    31 1   
    24    12    13 1   
    25    12    19 1   
    26    13    14 2   
    27    13    15 1   
    28    15    16 1   
    29    15    32 1   
    30    16    17 2   
    31    16    18 1   
    32    18    19 1   
    33    18    33 1   
    34    19    20 2   
@<TRIPOS>SUBSTRUCTURE
     1 C4B         1 TEMP              0 ****  ****    0 ROOT
