@<TRIPOS>MOLECULE
C4C
   40    41     1     0     0
SMALL
No Charge or Current Charge


@<TRIPOS>ATOM
      1 C1           0.6410     3.6340    -2.1190 c3         1 C4C       0.149600
      2 N3           0.9390     3.2900    -0.7100 n3         1 C4C      -0.715600
      3 C2           0.0310     3.9920     0.2300 c3         1 C4C       0.149600
      4 C3           0.9920     1.8150    -0.4950 c3         1 C4C       0.132800
      5 C4           1.5350     1.3470     0.8870 c3         1 C4C       0.227800
      6 N1           1.5770    -0.1290     1.0600 nh         1 C4C      -0.794300
      7 C12          2.4760    -0.9310     0.3170 ca         1 C4C       0.626900
      8 C13          3.6270    -0.4020    -0.3040 ca         1 C4C      -0.231000
      9 C14          4.4750    -1.2470    -1.0340 ca         1 C4C      -0.036000
     10 C15          4.1350    -2.6030    -1.1120 ca         1 C4C      -0.225000
     11 C16          2.9760    -3.0530    -0.4650 ca         1 C4C       0.386900
     12 N2           2.1610    -2.2370     0.2370 nb         1 C4C      -0.765000
     13 C5           0.5070    -0.7040     1.9200 c3         1 C4C       0.277100
     14 C6          -0.8960    -0.4670     1.3660 ca         1 C4C      -0.109300
     15 C11         -1.3540    -1.2080     0.2580 ca         1 C4C      -0.089500
     16 C10         -2.6340    -0.9740    -0.2730 ca         1 C4C      -0.109000
     17 C7          -1.7350     0.5130     1.9370 ca         1 C4C      -0.089500
     18 C8          -3.0150     0.7470     1.4040 ca         1 C4C      -0.109000
     19 C9          -3.4630     0.0040     0.3000 ca         1 C4C       0.122000
     20 Cl1         -5.0630     0.3000    -0.3670 cl         1 C4C      -0.207000
     21 H11A        -0.3610     3.2840    -2.4040 h1         1 C4C       0.031533
     22 H12          0.6830     4.7200    -2.2720 h1         1 C4C       0.031533
     23 H13A         1.3720     3.1710    -2.7950 h1         1 C4C       0.031533
     24 H21         -0.9970     3.6160     0.1360 h1         1 C4C       0.031533
     25 H22          0.3550     3.8590     1.2700 h1         1 C4C       0.031533
     26 H23          0.0210     5.0710     0.0250 h1         1 C4C       0.031533
     27 H31         -0.0110     1.3890    -0.6310 h1         1 C4C       0.043200
     28 H32          1.6300     1.3640    -1.2670 h1         1 C4C       0.043200
     29 H41          2.5320     1.7770     1.0470 h1         1 C4C       0.055700
     30 H42          0.9000     1.7810     1.6700 h1         1 C4C       0.055700
     31 H13          3.8740     0.6500    -0.2250 ha         1 C4C       0.129000
     32 H14          5.3690    -0.8620    -1.5210 ha         1 C4C       0.114000
     33 H15          4.7570    -3.3020    -1.6640 ha         1 C4C       0.124000
     34 H16          2.6890    -4.1030    -0.5090 h4         1 C4C       0.013100
     35 H51          0.6390    -1.7810     2.0890 h1         1 C4C       0.069200
     36 H52          0.5730    -0.2530     2.9200 h1         1 C4C       0.069200
     37 H11         -0.7110    -1.9600    -0.1950 ha         1 C4C       0.123500
     38 H10         -2.9820    -1.5460    -1.1290 ha         1 C4C       0.129000
     39 H7          -1.3940     1.0980     2.7890 ha         1 C4C       0.123500
     40 H8          -3.6580     1.5040     1.8450 ha         1 C4C       0.129000
@<TRIPOS>BOND
     1     1     2 1   
     2     1    21 1   
     3     1    22 1   
     4     1    23 1   
     5     2     3 1   
     6     2     4 1   
     7     3    24 1   
     8     3    25 1   
     9     3    26 1   
    10     4     5 1   
    11     4    27 1   
    12     4    28 1   
    13     5     6 1   
    14     5    29 1   
    15     5    30 1   
    16     6     7 1   
    17     6    13 1   
    18     7     8 ar  
    19     7    12 ar  
    20     8     9 ar  
    21     8    31 1   
    22     9    10 ar  
    23     9    32 1   
    24    10    11 ar  
    25    10    33 1   
    26    11    12 ar  
    27    11    34 1   
    28    13    14 1   
    29    13    35 1   
    30    13    36 1   
    31    14    15 ar  
    32    14    17 ar  
    33    15    16 ar  
    34    15    37 1   
    35    16    19 ar  
    36    16    38 1   
    37    17    18 ar  
    38    17    39 1   
    39    18    19 ar  
    40    18    40 1   
    41    19    20 1   
@<TRIPOS>SUBSTRUCTURE
     1 C4C         1 TEMP              0 ****  ****    0 ROOT
