@<TRIPOS>MOLECULE
C4C
   40    41     1     0     0
SMALL
bcc


@<TRIPOS>ATOM
      1 C1           0.7800     3.6730    -1.9920 c3         1 C4C       0.149600
      2 N3           1.0500     3.2980    -0.6200 n3         1 C4C      -0.715600
      3 C2           0.2230     4.0680     0.2870 c3         1 C4C       0.149600
      4 C3           0.8990     1.8690    -0.4240 c3         1 C4C       0.132800
      5 C4           1.5760     1.3950     0.8630 c3         1 C4C       0.227800
      6 N1           1.5380    -0.0410     1.0400 nh         1 C4C      -0.794300
      7 C12          2.3460    -0.8680     0.3120 ca         1 C4C       0.692200
      8 C13          3.3730    -0.3630    -0.5160 ca         1 C4C      -0.314300
      9 C14          4.1730    -1.2550    -1.1970 ca         1 C4C      -0.054000
     10 C15          3.9630    -2.6250    -1.0660 ca         1 C4C      -0.308300
     11 C16          2.9300    -3.0210    -0.2390 ca         1 C4C       0.452200
     12 N2           2.1440    -2.1830     0.4240 nb         1 C4C      -0.765000
     13 C5           0.5130    -0.5660     1.9210 c3         1 C4C       0.277100
     14 C6          -0.8730    -0.4770     1.3320 ca         1 C4C      -0.109300
     15 C11         -1.2270    -1.2390     0.2200 ca         1 C4C      -0.107500
     16 C10         -2.4850    -1.1290    -0.3490 ca         1 C4C      -0.127000
     17 C7          -1.8120     0.3950     1.8660 ca         1 C4C      -0.107500
     18 C8          -3.0790     0.5200     1.3100 ca         1 C4C      -0.127000
     19 C9          -3.4020    -0.2460     0.2030 ca         1 C4C       0.030400
     20 CL1         -4.9790    -0.1020    -0.5060 cl         1 C4C      -0.115400
     21 H11A        -0.2550     3.4650    -2.3060 h1         1 C4C       0.031533
     22 H12          0.9570     4.7420    -2.1270 h1         1 C4C       0.031533
     23 H13A         1.4480     3.1380    -2.6680 h1         1 C4C       0.031533
     24 H21         -0.8540     3.8840     0.1470 h1         1 C4C       0.031533
     25 H22          0.4630     3.8450     1.3260 h1         1 C4C       0.031533
     26 H23          0.4010     5.1330     0.1360 h1         1 C4C       0.031533
     27 H31         -0.1590     1.5600    -0.4200 h1         1 C4C       0.043200
     28 H32          1.3650     1.3590    -1.2710 h1         1 C4C       0.043200
     29 H41          2.6070     1.7570     0.8830 h1         1 C4C       0.055700
     30 H42          1.0900     1.8350     1.7350 h1         1 C4C       0.055700
     31 H13          3.5480     0.6970    -0.6250 ha         1 C4C       0.147000
     32 H14          4.9660    -0.8770    -1.8310 ha         1 C4C       0.132000
     33 H15          4.5710    -3.3500    -1.5890 ha         1 C4C       0.142000
     34 H16          2.7130    -4.0750    -0.1030 h4         1 C4C       0.013100
     35 H51          0.7570    -1.5990     2.1590 h1         1 C4C       0.069200
     36 H52          0.5420    -0.0010     2.8560 h1         1 C4C       0.069200
     37 H11         -0.5140    -1.9300    -0.2120 ha         1 C4C       0.141500
     38 H10         -2.7480    -1.7260    -1.2120 ha         1 C4C       0.147000
     39 H7          -1.5580     0.9960     2.7310 ha         1 C4C       0.141500
     40 H8          -3.7980     1.2060     1.7360 ha         1 C4C       0.147000
@<TRIPOS>BOND
     1     1     2 1   
     2     1    21 1   
     3     1    22 1   
     4     1    23 1   
     5     2     3 1   
     6     2     4 1   
     7     3    24 1   
     8     3    25 1   
     9     3    26 1   
    10     4     5 1   
    11     4    27 1   
    12     4    28 1   
    13     5     6 1   
    14     5    29 1   
    15     5    30 1   
    16     6     7 1   
    17     6    13 1   
    18     7     8 ar  
    19     7    12 ar  
    20     8     9 ar  
    21     8    31 1   
    22     9    10 ar  
    23     9    32 1   
    24    10    11 ar  
    25    10    33 1   
    26    11    12 ar  
    27    11    34 1   
    28    13    14 1   
    29    13    35 1   
    30    13    36 1   
    31    14    15 ar  
    32    14    17 ar  
    33    15    16 ar  
    34    15    37 1   
    35    16    19 ar  
    36    16    38 1   
    37    17    18 ar  
    38    17    39 1   
    39    18    19 ar  
    40    18    40 1   
    41    19    20 1   
@<TRIPOS>SUBSTRUCTURE
     1 C4C         1 TEMP              0 ****  ****    0 ROOT
