@<TRIPOS>MOLECULE
C4E
   27    29     1     0     0
SMALL
No Charge or Current Charge


@<TRIPOS>ATOM
      1 N10         -0.6990    -0.5640     0.3750 nu         1 C4E      -0.842000
      2 C11         -2.0540    -0.3480     0.1140 ca         1 C4E       0.337000
      3 C12         -2.5020     0.8130    -0.5440 ca         1 C4E      -0.187500
      4 C13         -3.8710     1.0010    -0.8010 ca         1 C4E      -0.067000
      5 C14         -4.7980     0.0240    -0.4030 ca         1 C4E      -0.164000
      6 C15         -4.3570    -1.1410     0.2460 ca         1 C4E      -0.067000
      7 C16         -2.9870    -1.3250     0.4990 ca         1 C4E      -0.187500
      8 C7           0.4050     0.2560     0.3170 cc         1 C4E       0.082800
      9 C6           0.4830     1.6020     0.6290 cd         1 C4E      -0.157100
     10 C8           1.7450    -0.1770     0.0670 ca         1 C4E      -0.156800
     11 C9           2.2330    -1.4460    -0.2720 ca         1 C4E      -0.022000
     12 C4           2.5840     0.9070     0.1970 ca         1 C4E       0.375500
     13 N5           1.8350     2.0170     0.5320 na         1 C4E      -0.323400
     14 N3           3.9170     0.8240     0.0160 nb         1 C4E      -0.682000
     15 C2           4.4220    -0.3930    -0.3100 ca         1 C4E       0.360900
     16 C1           3.6220    -1.5450    -0.4630 ca         1 C4E      -0.197000
     17 HN10        -0.4760    -1.5420     0.5630 hn         1 C4E       0.492000
     18 H12         -1.7930     1.5660    -0.8710 ha         1 C4E       0.111500
     19 H13         -4.2120     1.9000    -1.3100 ha         1 C4E       0.107500
     20 H14         -5.8580     0.1680    -0.6010 ha         1 C4E       0.113000
     21 H15         -5.0750    -1.9000     0.5510 ha         1 C4E       0.107500
     22 H16         -2.6530    -2.2280     1.0030 ha         1 C4E       0.111500
     23 H6          -0.3120     2.2790     0.9290 h4         1 C4E       0.225000
     24 H9           1.5770    -2.3070    -0.3850 ha         1 C4E       0.121000
     25 HN5          2.2080     2.9430     0.7030 hn         1 C4E       0.364000
     26 H2           5.5010    -0.4460    -0.4540 h4         1 C4E       0.019100
     27 H1           4.0800    -2.4940    -0.7270 ha         1 C4E       0.123000
@<TRIPOS>BOND
     1     1     2 1   
     2     1     8 1   
     3     1    17 1   
     4     2     3 ar  
     5     2     7 ar  
     6     3     4 ar  
     7     3    18 1   
     8     4     5 ar  
     9     4    19 1   
    10     5     6 ar  
    11     5    20 1   
    12     6     7 ar  
    13     6    21 1   
    14     7    22 1   
    15     8     9 2   
    16     8    10 1   
    17     9    13 1   
    18     9    23 1   
    19    10    11 ar  
    20    10    12 ar  
    21    11    16 ar  
    22    11    24 1   
    23    12    13 1   
    24    12    14 ar  
    25    13    25 1   
    26    14    15 ar  
    27    15    16 ar  
    28    15    26 1   
    29    16    27 1   
@<TRIPOS>SUBSTRUCTURE
     1 C4E         1 TEMP              0 ****  ****    0 ROOT
