@<TRIPOS>MOLECULE
C4E
   27    29     1     0     0
SMALL
abcg2


@<TRIPOS>ATOM
      1 N10         -0.7750    -0.5000     1.0270 nu         1 C4E      -0.842000
      2 C11         -1.9930    -0.3410     0.4040 ca         1 C4E       0.337000
      3 C12         -2.2510     0.6910    -0.5050 ca         1 C4E      -0.187500
      4 C13         -3.4990     0.8060    -1.1000 ca         1 C4E      -0.067000
      5 C14         -4.5200    -0.0900    -0.8130 ca         1 C4E      -0.164000
      6 C15         -4.2660    -1.1170     0.0900 ca         1 C4E      -0.067000
      7 C16         -3.0260    -1.2450     0.6920 ca         1 C4E      -0.187500
      8 C7           0.3670     0.2620     0.7830 cc         1 C4E       0.082800
      9 C6           0.5520     1.5920     1.0490 cd         1 C4E      -0.157100
     10 C8           1.5880    -0.2090     0.2030 ca         1 C4E      -0.156800
     11 C9           2.0640    -1.4250    -0.2780 ca         1 C4E      -0.022000
     12 C4           2.4670     0.8960     0.1520 ca         1 C4E       0.375500
     13 N5           1.8070     1.9720     0.6580 na         1 C4E      -0.323400
     14 N3           3.7070     0.8880    -0.3100 nb         1 C4E      -0.682000
     15 C2           4.1300    -0.2840    -0.7600 ca         1 C4E       0.360900
     16 C1           3.3580    -1.4520    -0.7660 ca         1 C4E      -0.197000
     17 HN10        -0.6420    -1.3610     1.5340 hn         1 C4E       0.492000
     18 H12         -1.4770     1.4060    -0.7510 ha         1 C4E       0.111500
     19 H13         -3.6700     1.6150    -1.8000 ha         1 C4E       0.107500
     20 H14         -5.4900     0.0080    -1.2800 ha         1 C4E       0.113000
     21 H15         -5.0450    -1.8300     0.3330 ha         1 C4E       0.107500
     22 H16         -2.8480    -2.0520     1.3930 ha         1 C4E       0.111500
     23 H6          -0.1300     2.3050     1.4820 h4         1 C4E       0.225000
     24 H9           1.4480    -2.3160    -0.2700 ha         1 C4E       0.121000
     25 HN5          2.1780     2.9050     0.7290 hn         1 C4E       0.364000
     26 H2           5.1440    -0.3130    -1.1430 h4         1 C4E       0.019100
     27 H1           3.7850    -2.3670    -1.1540 ha         1 C4E       0.123000
@<TRIPOS>BOND
     1     1     2 1   
     2     1     8 1   
     3     1    17 1   
     4     2     3 ar  
     5     2     7 ar  
     6     3     4 ar  
     7     3    18 1   
     8     4     5 ar  
     9     4    19 1   
    10     5     6 ar  
    11     5    20 1   
    12     6     7 ar  
    13     6    21 1   
    14     7    22 1   
    15     8     9 2   
    16     8    10 1   
    17     9    13 1   
    18     9    23 1   
    19    10    11 ar  
    20    10    12 ar  
    21    11    16 ar  
    22    11    24 1   
    23    12    13 1   
    24    12    14 ar  
    25    13    25 1   
    26    14    15 ar  
    27    15    16 ar  
    28    15    26 1   
    29    16    27 1   
@<TRIPOS>SUBSTRUCTURE
     1 C4E         1 TEMP              0 ****  ****    0 ROOT
