@<TRIPOS>MOLECULE
C4F
   32    34     1     0     0
SMALL
bcc


@<TRIPOS>ATOM
      1 C15          5.0180     1.9540     0.0400 c3         1 C4F       0.126700
      2 O14          3.9290     1.4900    -0.7310 os         1 C4F      -0.320900
      3 C13          3.1410     0.5250    -0.2150 ca         1 C4F       0.139100
      4 C16          3.3260    -0.0560     1.0350 ca         1 C4F      -0.218000
      5 C17          2.4410    -1.0450     1.4580 ca         1 C4F      -0.091000
      6 C18          1.3860    -1.4540     0.6630 ca         1 C4F      -0.154000
      7 C12          2.0750     0.1100    -1.0190 ca         1 C4F      -0.166000
      8 C11          1.1990    -0.8730    -0.5930 ca         1 C4F      -0.040300
      9 C10          0.0610    -1.3190    -1.4820 c3         1 C4F       0.043100
     10 C9          -1.2680    -1.2540    -0.8060 cc         1 C4F      -0.130400
     11 C1          -1.9140    -0.0800    -0.3020 ca         1 C4F      -0.197100
     12 C8          -2.1100    -2.2920    -0.5280 cd         1 C4F      -0.100100
     13 N7          -3.2350    -1.8380     0.1100 na         1 C4F      -0.279100
     14 C6          -3.1440    -0.4900     0.2630 ca         1 C4F       0.435800
     15 N5          -4.0450     0.2920     0.8360 nb         1 C4F      -0.686000
     16 C4          -3.7310     1.5800     0.8660 ca         1 C4F       0.422200
     17 C3          -2.5470     2.1150     0.3450 ca         1 C4F      -0.283300
     18 C2          -1.6170     1.2790    -0.2500 ca         1 C4F      -0.037000
     19 H15          5.5150     2.7160    -0.5550 h1         1 C4F       0.039367
     20 H15A         4.6920     2.4020     0.9830 h1         1 C4F       0.039367
     21 H15B         5.7340     1.1570     0.2590 h1         1 C4F       0.039367
     22 H16          4.1360     0.2420     1.6860 ha         1 C4F       0.133000
     23 H17          2.5880    -1.4940     2.4320 ha         1 C4F       0.128000
     24 H18          0.7050    -2.2190     1.0150 ha         1 C4F       0.135000
     25 H12          1.9380     0.5720    -1.9910 ha         1 C4F       0.141000
     26 H10          0.0540    -0.7010    -2.3850 hc         1 C4F       0.053700
     27 H10A         0.2440    -2.3440    -1.8150 hc         1 C4F       0.053700
     28 H8          -1.9890    -3.3420    -0.7420 h4         1 C4F       0.164000
     29 HN7         -4.0030    -2.4120     0.4190 hn         1 C4F       0.310700
     30 H4          -4.4550     2.2390     1.3320 h4         1 C4F       0.016100
     31 H3          -2.3710     3.1790     0.4150 ha         1 C4F       0.139000
     32 H2          -0.6930     1.6720    -0.6560 ha         1 C4F       0.143000
@<TRIPOS>BOND
     1     1     2 1   
     2     1    19 1   
     3     1    20 1   
     4     1    21 1   
     5     2     3 1   
     6     3     4 ar  
     7     3     7 ar  
     8     4     5 ar  
     9     4    22 1   
    10     5     6 ar  
    11     5    23 1   
    12     6     8 ar  
    13     6    24 1   
    14     7     8 ar  
    15     7    25 1   
    16     8     9 1   
    17     9    10 1   
    18     9    26 1   
    19     9    27 1   
    20    10    11 1   
    21    10    12 2   
    22    11    14 ar  
    23    11    18 ar  
    24    12    13 1   
    25    12    28 1   
    26    13    14 1   
    27    13    29 1   
    28    14    15 ar  
    29    15    16 ar  
    30    16    17 ar  
    31    16    30 1   
    32    17    18 ar  
    33    17    31 1   
    34    18    32 1   
@<TRIPOS>SUBSTRUCTURE
     1 C4F         1 TEMP              0 ****  ****    0 ROOT
