@<TRIPOS>MOLECULE
C4F
   32    34     1     0     0
SMALL
No Charge or Current Charge


@<TRIPOS>ATOM
      1 C15          4.9150     2.1310     0.2400 c3         1 C4F       0.149900
      2 O14          3.7760     1.6740    -0.5100 os         1 C4F      -0.344100
      3 C13          3.0610     0.5500    -0.1490 ca         1 C4F       0.139100
      4 C16          3.3940    -0.2330     0.9770 ca         1 C4F      -0.200000
      5 C17          2.6270    -1.3680     1.2940 ca         1 C4F      -0.073000
      6 C18          1.5300    -1.7230     0.4920 ca         1 C4F      -0.136000
      7 C12          1.9620     0.1870    -0.9460 ca         1 C4F      -0.148000
      8 C11          1.1890    -0.9480    -0.6330 ca         1 C4F      -0.040300
      9 C10         -0.0060    -1.3370    -1.4950 c3         1 C4F       0.043100
     10 C9          -1.3110    -1.2650    -0.7440 cc         1 C4F      -0.130400
     11 C1          -1.9920    -0.0770    -0.3140 ca         1 C4F      -0.131800
     12 C8          -2.0930    -2.3230    -0.3020 cd         1 C4F      -0.150100
     13 N7          -3.2280    -1.8110     0.3760 na         1 C4F      -0.329400
     14 C6          -3.1400    -0.4360     0.3560 ca         1 C4F       0.370500
     15 N5          -3.9920     0.4640     0.8830 nb         1 C4F      -0.686000
     16 C4          -3.6760     1.7760     0.7300 ca         1 C4F       0.356900
     17 C3          -2.5170     2.2170     0.0570 ca         1 C4F      -0.200000
     18 C2          -1.6360     1.2660    -0.4880 ca         1 C4F      -0.019000
     19 H15          5.3320     3.0370    -0.2180 h1         1 C4F       0.039367
     20 H15A         4.6310     2.3720     1.2720 h1         1 C4F       0.039367
     21 H15B         5.7020     1.3670     0.2590 h1         1 C4F       0.039367
     22 H16          4.2370     0.0200     1.6140 ha         1 C4F       0.115000
     23 H17          2.8820    -1.9720     2.1620 ha         1 C4F       0.110000
     24 H18          0.9410    -2.6010     0.7460 ha         1 C4F       0.117000
     25 H12          1.7130     0.7950    -1.8120 ha         1 C4F       0.123000
     26 H10         -0.0670    -0.6940    -2.3810 hc         1 C4F       0.053700
     27 H10A         0.1390    -2.3540    -1.8790 hc         1 C4F       0.053700
     28 H8          -1.9240    -3.3920    -0.4180 h4         1 C4F       0.214000
     29 HN7         -3.9750    -2.3420     0.8070 hn         1 C4F       0.361000
     30 H4          -4.3720     2.4950     1.1600 h4         1 C4F       0.016100
     31 H3          -2.3120     3.2790    -0.0350 ha         1 C4F       0.121000
     32 H2          -0.7310     1.5590    -1.0140 ha         1 C4F       0.125000
@<TRIPOS>BOND
     1     1     2 1   
     2     1    19 1   
     3     1    20 1   
     4     1    21 1   
     5     2     3 1   
     6     3     4 ar  
     7     3     7 ar  
     8     4     5 ar  
     9     4    22 1   
    10     5     6 ar  
    11     5    23 1   
    12     6     8 ar  
    13     6    24 1   
    14     7     8 ar  
    15     7    25 1   
    16     8     9 1   
    17     9    10 1   
    18     9    26 1   
    19     9    27 1   
    20    10    11 1   
    21    10    12 2   
    22    11    14 ar  
    23    11    18 ar  
    24    12    13 1   
    25    12    28 1   
    26    13    14 1   
    27    13    29 1   
    28    14    15 ar  
    29    15    16 ar  
    30    16    17 ar  
    31    16    30 1   
    32    17    18 ar  
    33    17    31 1   
    34    18    32 1   
@<TRIPOS>SUBSTRUCTURE
     1 C4F         1 TEMP              0 ****  ****    0 ROOT
