@<TRIPOS>MOLECULE
C4G
   36    35     1     0     0
SMALL
bcc


@<TRIPOS>ATOM
      1 N           -4.0910     2.0060     0.3850 n8         1 C4G      -0.893800
      2 CA          -4.2180     0.7100    -0.2660 c3         1 C4G       0.013500
      3 C           -5.5570    -0.0290    -0.0150 c          1 C4G       0.902600
      4 O           -6.2880     0.3940     0.9040 o          1 C4G      -0.838300
      5 CB          -3.0570    -0.1970     0.1480 c3         1 C4G      -0.049400
      6 CG          -1.6920     0.3330    -0.2620 c3         1 C4G      -0.085400
      7 CD          -0.5660    -0.5890     0.1780 c3         1 C4G       0.204800
      8 NE           0.7140    -0.0610    -0.2420 nu         1 C4G      -0.887200
      9 CZ           1.8830    -0.7340     0.0200 c2         1 C4G       0.811100
     10 NH1          1.9890    -1.9540     0.4070 n2         1 C4G      -0.927100
     11 NH2          3.0110     0.0010    -0.2460 nu         1 C4G      -0.847200
     12 C01          5.4000     0.4740    -0.2890 c3         1 C4G      -0.094400
     13 C02          4.3080    -0.4750     0.1790 c3         1 C4G       0.225800
     14 C03          6.7830     0.0090     0.1380 c3         1 C4G       0.150800
     15 N01          7.8030     0.9470    -0.3060 n8         1 C4G      -0.885800
     16 H1          -4.7820     2.6350    -0.0050 hn         1 C4G       0.326800
     17 H2          -4.3760     1.8930     1.3520 hn         1 C4G       0.326800
     18 H4          -4.1350     0.8760    -1.3460 h1         1 C4G       0.037700
     19 H6          -3.0860    -0.3370     1.2360 hc         1 C4G       0.041200
     20 H7          -3.2110    -1.1850    -0.2910 hc         1 C4G       0.041200
     21 H8          -1.6540     0.4480    -1.3500 hc         1 C4G       0.044200
     22 H9          -1.5420     1.3290     0.1640 hc         1 C4G       0.044200
     23 H10         -0.6100    -0.7320     1.2660 h1         1 C4G       0.034700
     24 H11         -0.7150    -1.5730    -0.2750 h1         1 C4G       0.034700
     25 H12          0.7730     0.9460    -0.2350 hn         1 C4G       0.404800
     26 H13          1.0820    -2.3850     0.5300 hn         1 C4G       0.388400
     27 H14          2.9030     1.0030    -0.2110 hn         1 C4G       0.401800
     28 H15          5.3670     0.5670    -1.3780 hc         1 C4G       0.048200
     29 H16          5.2140     1.4740     0.1200 hc         1 C4G       0.048200
     30 H17          4.3600    -0.5920     1.2700 h1         1 C4G       0.045700
     31 H18          4.4760    -1.4670    -0.2440 h1         1 C4G       0.045700
     32 H19          6.7860    -0.1590     1.2250 h1         1 C4G       0.028700
     33 H20          6.9910    -0.9620    -0.3210 h1         1 C4G       0.028700
     34 H21          7.7170     1.8080     0.2220 hn         1 C4G       0.332300
     35 H22          8.7190     0.5820    -0.0760 hn         1 C4G       0.332300
     36 O1          -5.7850    -1.0130    -0.7500 o          1 C4G      -0.838300
@<TRIPOS>BOND
     1     1     2 1   
     2     1    16 1   
     3     1    17 1   
     4     2     3 1   
     5     2     5 1   
     6     2    18 1   
     7     3     4 1   
     8     3    36 1   
     9     5     6 1   
    10     5    19 1   
    11     5    20 1   
    12     6     7 1   
    13     6    21 1   
    14     6    22 1   
    15     7     8 1   
    16     7    23 1   
    17     7    24 1   
    18     8     9 1   
    19     8    25 1   
    20     9    10 2   
    21     9    11 1   
    22    10    26 1   
    23    11    13 1   
    24    11    27 1   
    25    12    13 1   
    26    12    14 1   
    27    12    28 1   
    28    12    29 1   
    29    13    30 1   
    30    13    31 1   
    31    14    15 1   
    32    14    32 1   
    33    14    33 1   
    34    15    34 1   
    35    15    35 1   
@<TRIPOS>SUBSTRUCTURE
     1 C4G         1 TEMP              0 ****  ****    0 ROOT
