@<TRIPOS>MOLECULE
C4G
   36    35     1     0     0
SMALL
No Charge or Current Charge


@<TRIPOS>ATOM
      1 N           -4.1240     2.0970     0.4160 n8         1 C4G      -1.004200
      2 CA          -4.1800     0.7960    -0.3480 c3         1 C4G       0.013500
      3 C           -5.5880     0.0670    -0.3770 c          1 C4G       0.692000
      4 O           -6.1750    -0.1100     0.6840 o          1 C4G      -0.733000
      5 CB          -3.0790    -0.1840     0.1420 c3         1 C4G      -0.049400
      6 CG          -1.6280     0.2990    -0.1090 c3         1 C4G      -0.085400
      7 CD          -0.5710    -0.7300     0.3400 c3         1 C4G       0.204800
      8 NE           0.7840    -0.2270     0.0760 nu         1 C4G      -0.942400
      9 CZ           1.9150    -0.8730     0.3500 c2         1 C4G       0.811100
     10 NH1          1.9580    -2.0210     0.8440 n2         1 C4G      -0.927100
     11 NH2          2.9780    -0.1350     0.0330 nu         1 C4G      -0.902400
     12 C01          5.3510     0.5120    -0.2490 c3         1 C4G      -0.094400
     13 C02          4.3670    -0.5760     0.2220 c3         1 C4G       0.225800
     14 C03          6.8210     0.0840    -0.0760 c3         1 C4G       0.150800
     15 N01          7.7490     1.1330    -0.5380 n8         1 C4G      -0.996200
     16 H1          -4.8260     2.7410     0.0300 hn         1 C4G       0.382000
     17 H2          -4.4680     1.9250     1.3690 hn         1 C4G       0.382000
     18 H4          -3.9470     1.0400    -1.3940 h1         1 C4G       0.037700
     19 H6          -3.2180    -0.3870     1.2120 hc         1 C4G       0.041200
     20 H7          -3.2150    -1.1430    -0.3750 hc         1 C4G       0.041200
     21 H8          -1.5000     0.5050    -1.1790 hc         1 C4G       0.044200
     22 H9          -1.4580     1.2410     0.4260 hc         1 C4G       0.044200
     23 H10         -0.6940    -0.9270     1.4140 h1         1 C4G       0.034700
     24 H11         -0.7330    -1.6730    -0.2010 h1         1 C4G       0.034700
     25 H12          0.8810     0.4490    -0.6710 hn         1 C4G       0.460000
     26 H13          0.9800    -2.2960     0.9650 hn         1 C4G       0.388400
     27 H14          2.8050     0.8580     0.1110 hn         1 C4G       0.457000
     28 H15          5.1620     0.7360    -1.3070 hc         1 C4G       0.048200
     29 H16          5.1720     1.4330     0.3190 hc         1 C4G       0.048200
     30 H17          4.5510    -0.7940     1.2840 h1         1 C4G       0.045700
     31 H18          4.5480    -1.4970    -0.3490 h1         1 C4G       0.045700
     32 H19          7.0240    -0.1260     0.9830 h1         1 C4G       0.028700
     33 H20          7.0100    -0.8320    -0.6550 h1         1 C4G       0.028700
     34 H21          7.6360     1.9640     0.0560 hn         1 C4G       0.387500
     35 H22          8.7140     0.8330    -0.3500 hn         1 C4G       0.387500
     36 O1          -6.0850    -0.1910    -1.4640 o          1 C4G      -0.733000
@<TRIPOS>BOND
     1     1     2 1   
     2     1    16 1   
     3     1    17 1   
     4     2     3 1   
     5     2     5 1   
     6     2    18 1   
     7     3     4 1   
     8     3    36 1   
     9     5     6 1   
    10     5    19 1   
    11     5    20 1   
    12     6     7 1   
    13     6    21 1   
    14     6    22 1   
    15     7     8 1   
    16     7    23 1   
    17     7    24 1   
    18     8     9 1   
    19     8    25 1   
    20     9    10 2   
    21     9    11 1   
    22    10    26 1   
    23    11    13 1   
    24    11    27 1   
    25    12    13 1   
    26    12    14 1   
    27    12    28 1   
    28    12    29 1   
    29    13    30 1   
    30    13    31 1   
    31    14    15 1   
    32    14    32 1   
    33    14    33 1   
    34    15    34 1   
    35    15    35 1   
@<TRIPOS>SUBSTRUCTURE
     1 C4G         1 TEMP              0 ****  ****    0 ROOT
