@<TRIPOS>MOLECULE
C4H
   54    55     1     0     0
SMALL
abcg2


@<TRIPOS>ATOM
      1 C1          -3.9970     0.7610     0.3660 ca         1 C4H      -0.068000
      2 C2          -4.1980     0.8440     1.7630 ca         1 C4H      -0.026000
      3 C3          -4.2970     1.8760    -0.4820 ca         1 C4H       0.294000
      4 N4          -4.6670     3.0880     0.1130 nh         1 C4H      -0.781400
      5 C5          -3.5970     3.8000     0.8000 c3         1 C4H       0.172100
      6 C6          -5.4660     3.9860    -0.6930 c3         1 C4H       0.172100
      7 C7          -4.2440     1.7060    -1.8460 ca         1 C4H      -0.174000
      8 C8          -3.8560     0.4750    -2.3980 ca         1 C4H      -0.054000
      9 C9          -3.4900    -0.5800    -1.6100 ca         1 C4H      -0.161000
     10 C10         -3.5420    -0.4640    -0.2000 ca         1 C4H       0.057000
     11 C11         -3.1810    -1.5070     0.7060 ca         1 C4H      -0.306500
     12 C12         -3.3310    -1.3710     2.0600 ca         1 C4H       0.016000
     13 C13         -3.8800    -0.1940     2.5920 ca         1 C4H      -0.153000
     14 S14         -2.4550    -3.0260     0.1280 sy         1 C4H       1.145600
     15 N15         -1.0400    -2.6210    -0.6070 n7         1 C4H      -0.865300
     16 C16         -0.0490    -1.8600     0.1520 c3         1 C4H       0.199800
     17 C17          1.2300    -1.7390    -0.6590 c3         1 C4H      -0.078400
     18 C18          2.2810    -0.9230     0.0810 c3         1 C4H      -0.097400
     19 C19          3.5480    -0.7650    -0.7430 c3         1 C4H       0.105000
     20 N20          4.5190     0.0380    -0.0300 ns         1 C4H      -0.508900
     21 C21          5.7870     0.1840    -0.4320 c          1 C4H       0.598100
     22 O22          6.2290    -0.3510    -1.4400 o          1 C4H      -0.604100
     23 C23          6.6560     1.0390     0.4720 c3         1 C4H      -0.151400
     24 C24          7.6660     1.8450    -0.3280 c3         1 C4H       0.097600
     25 S25          8.6920     2.8030     0.8370 sh         1 C4H      -0.469800
     26 O26         -2.1170    -3.8170     1.3000 o          1 C4H      -0.532500
     27 O27         -3.3010    -3.6170    -0.8980 o          1 C4H      -0.532500
     28 H2          -4.6340     1.7420     2.1780 ha         1 C4H       0.131000
     29 H51         -4.0250     4.5330     1.4840 h1         1 C4H       0.037700
     30 H52         -2.9770     3.1220     1.3810 h1         1 C4H       0.037700
     31 H53         -2.9420     4.3300     0.0970 h1         1 C4H       0.037700
     32 H61         -6.3050     3.4520    -1.1360 h1         1 C4H       0.037700
     33 H62         -5.8670     4.7700    -0.0500 h1         1 C4H       0.037700
     34 H63         -4.9020     4.4760    -1.4980 h1         1 C4H       0.037700
     35 H7          -4.4820     2.5240    -2.5110 ha         1 C4H       0.120000
     36 H8          -3.8280     0.3690    -3.4740 ha         1 C4H       0.118000
     37 H9          -3.2130    -1.5050    -2.0910 ha         1 C4H       0.126000
     38 H12         -3.0470    -2.1710     2.7290 ha         1 C4H       0.145000
     39 H13         -4.0460    -0.1170     3.6570 ha         1 C4H       0.123000
     40 H15         -1.1840    -2.2720    -1.5490 hn         1 C4H       0.481000
     41 H161        -0.4200    -0.8610     0.4090 h1         1 C4H       0.052700
     42 H162         0.1530    -2.3860     1.0860 h1         1 C4H       0.052700
     43 H171         1.6160    -2.7370    -0.8820 hc         1 C4H       0.056200
     44 H172         1.0090    -1.2620    -1.6190 hc         1 C4H       0.056200
     45 H181         1.8740     0.0650     0.3200 hc         1 C4H       0.045200
     46 H182         2.5220    -1.4050     1.0330 hc         1 C4H       0.045200
     47 H191         3.9760    -1.7470    -0.9600 h1         1 C4H       0.054700
     48 H192         3.3070    -0.3030    -1.7060 h1         1 C4H       0.054700
     49 H20          4.2050     0.5500     0.7790 hn         1 C4H       0.313500
     50 H231         6.0400     1.7010     1.0840 hc         1 C4H       0.070700
     51 H232         7.1770     0.3680     1.1620 hc         1 C4H       0.070700
     52 H241         8.3040     1.1860    -0.9120 h1         1 C4H       0.073200
     53 H242         7.1580     2.5270    -1.0080 h1         1 C4H       0.073200
     54 H25          9.5130     3.3520    -0.0640 hs         1 C4H       0.220800
@<TRIPOS>BOND
     1     1     2 ar  
     2     1     3 ar  
     3     1    10 ar  
     4     2    13 ar  
     5     2    28 1   
     6     3     4 1   
     7     3     7 ar  
     8     4     5 1   
     9     4     6 1   
    10     5    29 1   
    11     5    30 1   
    12     5    31 1   
    13     6    32 1   
    14     6    33 1   
    15     6    34 1   
    16     7     8 ar  
    17     7    35 1   
    18     8     9 ar  
    19     8    36 1   
    20     9    10 ar  
    21     9    37 1   
    22    10    11 ar  
    23    11    12 ar  
    24    11    14 1   
    25    12    13 ar  
    26    12    38 1   
    27    13    39 1   
    28    14    15 1   
    29    14    26 2   
    30    14    27 2   
    31    15    16 1   
    32    15    40 1   
    33    16    17 1   
    34    16    41 1   
    35    16    42 1   
    36    17    18 1   
    37    17    43 1   
    38    17    44 1   
    39    18    19 1   
    40    18    45 1   
    41    18    46 1   
    42    19    20 1   
    43    19    47 1   
    44    19    48 1   
    45    20    21 1   
    46    20    49 1   
    47    21    22 2   
    48    21    23 1   
    49    23    24 1   
    50    23    50 1   
    51    23    51 1   
    52    24    25 1   
    53    24    52 1   
    54    24    53 1   
    55    25    54 1   
@<TRIPOS>SUBSTRUCTURE
     1 C4H         1 TEMP              0 ****  ****    0 ROOT
