@<TRIPOS>MOLECULE
C4H
   54    55     1     0     0
SMALL
No Charge or Current Charge


@<TRIPOS>ATOM
      1 C1          -3.6110     0.8310     0.3220 ca         1 C4H      -0.068000
      2 C2          -3.8660     0.8520     1.7110 ca         1 C4H      -0.026000
      3 C3          -3.7150     2.0280    -0.4390 ca         1 C4H       0.294000
      4 N4          -4.0460     3.2740     0.1480 nh         1 C4H      -0.781400
      5 C5          -3.0370     4.0130     0.9370 c3         1 C4H       0.172100
      6 C6          -5.2110     4.0420    -0.3370 c3         1 C4H       0.172100
      7 C7          -3.4680     1.9970    -1.8180 ca         1 C4H      -0.174000
      8 C8          -3.1050     0.8030    -2.4480 ca         1 C4H      -0.054000
      9 C9          -2.9940    -0.3770    -1.7020 ca         1 C4H      -0.161000
     10 C10         -3.2550    -0.3960    -0.3100 ca         1 C4H       0.057000
     11 C11         -3.1540    -1.5880     0.4770 ca         1 C4H      -0.306500
     12 C12         -3.3980    -1.5210     1.8660 ca         1 C4H       0.016000
     13 C13         -3.7530    -0.3130     2.4740 ca         1 C4H      -0.153000
     14 S14         -2.7530    -3.2360    -0.1830 sy         1 C4H       1.145600
     15 N15         -1.1270    -3.1320    -0.5550 n7         1 C4H      -0.865300
     16 C16         -0.3270    -2.0080    -0.0420 c3         1 C4H       0.199800
     17 C17          1.1480    -2.1960    -0.4440 c3         1 C4H      -0.078400
     18 C18          2.0610    -1.0580     0.0670 c3         1 C4H      -0.097400
     19 C19          3.5360    -1.2470    -0.3340 c3         1 C4H       0.105000
     20 N20          4.3720    -0.1550     0.1640 ns         1 C4H      -0.508900
     21 C21          5.7140    -0.0210    -0.1100 c          1 C4H       0.598100
     22 O22          6.3240    -0.8330    -0.7890 o          1 C4H      -0.604100
     23 C23          6.3910     1.1920     0.5260 c3         1 C4H      -0.151400
     24 C24          6.7190     2.2530    -0.5390 c3         1 C4H       0.097600
     25 S25          7.5420     3.7530     0.1730 sh         1 C4H      -0.469800
     26 O26         -2.8540    -4.2550     0.8650 o          1 C4H      -0.532500
     27 O27         -3.4060    -3.4150    -1.4810 o          1 C4H      -0.532500
     28 H2          -4.1560     1.7710     2.2130 ha         1 C4H       0.131000
     29 H51         -3.4820     4.3980     1.8640 h1         1 C4H       0.037700
     30 H52         -2.2010     3.3550     1.2100 h1         1 C4H       0.037700
     31 H53         -2.6380     4.8560     0.3580 h1         1 C4H       0.037700
     32 H61         -5.9690     3.3660    -0.7560 h1         1 C4H       0.037700
     33 H62         -5.6760     4.5970     0.4890 h1         1 C4H       0.037700
     34 H63         -4.9080     4.7550    -1.1150 h1         1 C4H       0.037700
     35 H7          -3.5400     2.9100    -2.4030 ha         1 C4H       0.120000
     36 H8          -2.9000     0.7940    -3.5160 ha         1 C4H       0.118000
     37 H9          -2.6850    -1.2620    -2.2430 ha         1 C4H       0.126000
     38 H12         -3.3260    -2.4100     2.4910 ha         1 C4H       0.145000
     39 H13         -3.9470    -0.2820     3.5430 ha         1 C4H       0.123000
     40 H15         -1.1590    -3.1060    -1.5720 hn         1 C4H       0.481000
     41 H161        -0.6750    -1.0470    -0.4440 h1         1 C4H       0.052700
     42 H162        -0.3890    -1.9590     1.0540 h1         1 C4H       0.052700
     43 H171         1.5080    -3.1540    -0.0470 hc         1 C4H       0.056200
     44 H172         1.2210    -2.2520    -1.5370 hc         1 C4H       0.056200
     45 H181         1.7000    -0.1000    -0.3290 hc         1 C4H       0.045200
     46 H182         1.9900    -1.0030     1.1610 hc         1 C4H       0.045200
     47 H191         3.9110    -2.1950     0.0750 h1         1 C4H       0.054700
     48 H192         3.6170    -1.2870    -1.4280 h1         1 C4H       0.054700
     49 H20          3.9470     0.5570     0.7460 hn         1 C4H       0.313500
     50 H231         5.7360     1.6440     1.2790 hc         1 C4H       0.070700
     51 H232         7.3290     0.8690     0.9910 hc         1 C4H       0.070700
     52 H241         7.3840     1.8190    -1.2990 h1         1 C4H       0.073200
     53 H242         5.7940     2.5690    -1.0400 h1         1 C4H       0.073200
     54 H25          7.6710     4.4230    -1.0000 hs         1 C4H       0.220800
@<TRIPOS>BOND
     1     1     2 ar  
     2     1     3 ar  
     3     1    10 ar  
     4     2    13 ar  
     5     2    28 1   
     6     3     4 1   
     7     3     7 ar  
     8     4     5 1   
     9     4     6 1   
    10     5    29 1   
    11     5    30 1   
    12     5    31 1   
    13     6    32 1   
    14     6    33 1   
    15     6    34 1   
    16     7     8 ar  
    17     7    35 1   
    18     8     9 ar  
    19     8    36 1   
    20     9    10 ar  
    21     9    37 1   
    22    10    11 ar  
    23    11    12 ar  
    24    11    14 1   
    25    12    13 ar  
    26    12    38 1   
    27    13    39 1   
    28    14    15 1   
    29    14    26 2   
    30    14    27 2   
    31    15    16 1   
    32    15    40 1   
    33    16    17 1   
    34    16    41 1   
    35    16    42 1   
    36    17    18 1   
    37    17    43 1   
    38    17    44 1   
    39    18    19 1   
    40    18    45 1   
    41    18    46 1   
    42    19    20 1   
    43    19    47 1   
    44    19    48 1   
    45    20    21 1   
    46    20    49 1   
    47    21    22 2   
    48    21    23 1   
    49    23    24 1   
    50    23    50 1   
    51    23    51 1   
    52    24    25 1   
    53    24    52 1   
    54    24    53 1   
    55    25    54 1   
@<TRIPOS>SUBSTRUCTURE
     1 C4H         1 TEMP              0 ****  ****    0 ROOT
