@<TRIPOS>MOLECULE
C4K
   52    56     1     0     0
SMALL
abcg2


@<TRIPOS>ATOM
      1 C1           0.6340     1.9520     0.2290 ca         1 C4K      -0.282600
      2 C2           1.0320     3.3240     0.1400 ca         1 C4K       0.233100
      3 C3           2.3480     3.6980     0.3290 ca         1 C4K      -0.212000
      4 O5           0.1410     4.2810    -0.1500 oh         1 C4K      -0.545100
      5 C8           2.8680     1.3540     0.8490 ca         1 C4K      -0.283900
      6 C9           3.2550     2.6930     0.6700 ca         1 C4K       0.028800
      7 C12          4.0670     0.6720     1.2170 cc         1 C4K       0.380900
      8 C13          4.2290    -0.7760     1.5410 c3         1 C4K      -0.043400
      9 C14          3.6000    -1.6670     0.4960 ca         1 C4K      -0.077300
     10 C15          4.0610    -1.6440    -0.8190 ca         1 C4K      -0.101000
     11 C16          2.3820    -3.2540    -1.4440 ca         1 C4K      -0.114000
     12 C19          2.5330    -2.4950     0.8190 ca         1 C4K      -0.114000
     13 C21         -4.6250    -0.0840    -1.6880 ca         1 C4K      -0.092000
     14 C22         -3.2900     0.3350    -1.6610 ca         1 C4K      -0.101000
     15 C24         -2.9390    -0.6900     0.5130 ca         1 C4K      -0.087000
     16 N25         -1.1010     0.4400    -0.5970 n          1 C4K      -0.233400
     17 C27         -5.0750    -0.7950    -0.6030 ca         1 C4K       0.057100
     18 C30         -6.2210    -2.0590     0.8250 c5         1 C4K       0.375600
     19 C4           1.5450     0.9900     0.6210 ca         1 C4K       0.048000
     20 C6          -0.7890     1.6150    -0.0080 c          1 C4K       0.634700
     21 O7          -1.6720     2.4080     0.3350 o          1 C4K      -0.624100
     22 N10          4.5780     2.7240     0.9230 na         1 C4K      -0.067400
     23 N11          5.0670     1.5120     1.2460 nd         1 C4K      -0.522100
     24 C17          1.9070    -3.2950    -0.1380 ca         1 C4K      -0.080300
     25 C18          3.4550    -2.4350    -1.7810 ca         1 C4K      -0.108000
     26 C23         -2.4690     0.0380    -0.5870 ca         1 C4K      -0.054000
     27 C26         -0.2020    -0.3940    -1.3830 c3         1 C4K       0.094300
     28 C28         -4.2510    -1.0900     0.4720 ca         1 C4K       0.056100
     29 O29         -4.9510    -1.7800     1.4010 os         1 C4K      -0.342100
     30 O31         -6.3100    -1.2960    -0.3730 os         1 C4K      -0.343100
     31 H1           2.6430     4.7360     0.2390 ha         1 C4K       0.140000
     32 H2          -0.7540     3.9130    -0.0200 ho         1 C4K       0.512000
     33 H3           5.2940    -0.9960     1.6420 hc         1 C4K       0.068200
     34 H4           3.7740    -0.9850     2.5130 hc         1 C4K       0.068200
     35 H5           4.8900    -1.0000    -1.0910 ha         1 C4K       0.120000
     36 H6           1.9090    -3.8610    -2.2060 ha         1 C4K       0.112000
     37 H7           2.1670    -2.5090     1.8410 ha         1 C4K       0.111000
     38 H8           1.0730    -5.0080     0.8610 hc         1 C4K       0.043367
     39 H9           0.0060    -3.6170     0.8220 hc         1 C4K       0.043367
     40 H10          0.2510    -4.5780    -0.6360 hc         1 C4K       0.043367
     41 H12         -2.8940     0.8970    -2.4970 ha         1 C4K       0.128000
     42 H13         -2.2920    -0.9210     1.3500 ha         1 C4K       0.140000
     43 H14         -6.2970    -3.1260     0.5920 h2         1 C4K       0.065700
     44 H15         -7.0120    -1.7600     1.5120 h2         1 C4K       0.065700
     45 H16          1.2330    -0.0360     0.7590 ha         1 C4K       0.128000
     46 H17          5.1970     3.5170     0.8940 hn         1 C4K       0.380000
     47 H18          3.8140    -2.4130    -2.8020 ha         1 C4K       0.114000
     48 H19          0.0850    -1.3040    -0.8540 h1         1 C4K       0.049033
     49 H20         -0.7090    -0.6830    -2.3020 h1         1 C4K       0.049033
     50 H21          0.6980     0.1480    -1.6560 h1         1 C4K       0.049033
     51 C20          0.7480    -4.1690     0.2430 c3         1 C4K      -0.048800
     52 H11         -5.2690     0.1510    -2.5230 ha         1 C4K       0.137000
@<TRIPOS>BOND
     1     1     2 ar  
     2     1    19 ar  
     3     1    20 1   
     4     2     3 ar  
     5     2     4 1   
     6     3     6 ar  
     7     3    31 1   
     8     4    32 1   
     9     5     6 ar  
    10     5     7 1   
    11     5    19 ar  
    12     6    22 1   
    13     7     8 1   
    14     7    23 2   
    15     8     9 1   
    16     8    33 1   
    17     8    34 1   
    18     9    10 ar  
    19     9    12 ar  
    20    10    25 ar  
    21    10    35 1   
    22    11    24 ar  
    23    11    25 ar  
    24    11    36 1   
    25    12    24 ar  
    26    12    37 1   
    27    13    14 ar  
    28    13    17 ar  
    29    13    52 1   
    30    14    26 ar  
    31    14    41 1   
    32    15    26 ar  
    33    15    28 ar  
    34    15    42 1   
    35    16    20 1   
    36    16    26 1   
    37    16    27 1   
    38    17    28 ar  
    39    17    30 1   
    40    18    29 1   
    41    18    30 1   
    42    18    43 1   
    43    18    44 1   
    44    19    45 1   
    45    20    21 2   
    46    22    23 1   
    47    22    46 1   
    48    24    51 1   
    49    25    47 1   
    50    27    48 1   
    51    27    49 1   
    52    27    50 1   
    53    28    29 1   
    54    38    51 1   
    55    39    51 1   
    56    40    51 1   
@<TRIPOS>SUBSTRUCTURE
     1 C4K         1 TEMP              0 ****  ****    0 ROOT
