@<TRIPOS>MOLECULE
C4K
   52    56     1     0     0
SMALL
No Charge or Current Charge


@<TRIPOS>ATOM
      1 C1           0.6430     2.0140     0.1550 ca         1 C4K      -0.282600
      2 C2           1.0730     3.3670     0.2260 ca         1 C4K       0.233100
      3 C3           2.3650     3.6950     0.6780 ca         1 C4K      -0.212000
      4 O5           0.2370     4.3730    -0.1430 oh         1 C4K      -0.545100
      5 C8           2.7920     1.3570     1.0430 ca         1 C4K      -0.283900
      6 C9           3.2000     2.6480     1.0710 ca         1 C4K       0.028800
      7 C12          3.9100     0.5780     1.5250 cc         1 C4K       0.380900
      8 C13          3.9490    -0.9240     1.6610 c3         1 C4K      -0.043400
      9 C14          3.4050    -1.6640     0.4410 ca         1 C4K      -0.077300
     10 C15          3.9770    -1.4500    -0.8280 ca         1 C4K      -0.101000
     11 C16          2.3620    -2.9750    -1.8250 ca         1 C4K      -0.114000
     12 C19          2.3120    -2.5450     0.5670 ca         1 C4K      -0.114000
     13 C21         -4.2030    -1.5390    -1.4900 ca         1 C4K      -0.092000
     14 C22         -2.9120    -0.9960    -1.6640 ca         1 C4K      -0.101000
     15 C24         -2.9680    -0.0860     0.6030 ca         1 C4K      -0.087000
     16 N25         -0.9930     0.3610    -0.8170 n          1 C4K      -0.233400
     17 C27         -4.8370    -1.3500    -0.2580 ca         1 C4K       0.057100
     18 C30         -6.2030    -1.3590     1.4780 c5         1 C4K       0.375600
     19 C4           1.5140     0.9900     0.6080 ca         1 C4K       0.048000
     20 C6          -0.7380     1.6740    -0.3490 c          1 C4K       0.634700
     21 O7          -1.6370     2.5060    -0.2610 o          1 C4K      -0.624100
     22 N10          4.4900     2.6560     1.5510 na         1 C4K      -0.067400
     23 N11          4.9540     1.3640     1.8410 nd         1 C4K      -0.522100
     24 C17          1.7850    -3.1990    -0.5620 ca         1 C4K      -0.080300
     25 C18          3.4570    -2.1040    -1.9570 ca         1 C4K      -0.108000
     26 C23         -2.2550    -0.3110    -0.6020 ca         1 C4K      -0.054000
     27 C26         -0.0650    -0.2070    -1.8270 c3         1 C4K       0.094300
     28 C28         -4.2440    -0.6430     0.7470 ca         1 C4K       0.056100
     29 O29         -5.0420    -0.5290     1.8400 os         1 C4K      -0.342100
     30 O31         -6.0830    -1.7760     0.0710 os         1 C4K      -0.343100
     31 H1           2.6960     4.7290     0.7220 ha         1 C4K       0.140000
     32 H2          -0.6540     3.9510    -0.2550 ho         1 C4K       0.512000
     33 H3           4.9800    -1.2460     1.8450 hc         1 C4K       0.068200
     34 H4           3.3870    -1.2020     2.5590 hc         1 C4K       0.068200
     35 H5           4.8190    -0.7710    -0.9400 ha         1 C4K       0.120000
     36 H6           1.9620    -3.4710    -2.7070 ha         1 C4K       0.112000
     37 H7           1.8600    -2.7120     1.5420 ha         1 C4K       0.111000
     38 H8           0.6600    -4.7270     0.4980 hc         1 C4K       0.043367
     39 H9          -0.3450    -3.5500    -0.3640 hc         1 C4K       0.043367
     40 H10          0.5060    -4.8180    -1.2610 hc         1 C4K       0.043367
     41 H12         -2.4310    -1.1160    -2.6320 ha         1 C4K       0.128000
     42 H13         -2.5360     0.4900     1.4170 ha         1 C4K       0.140000
     43 H14         -6.2150    -2.2520     2.1140 h2         1 C4K       0.065700
     44 H15         -7.1270    -0.7850     1.6170 h2         1 C4K       0.065700
     45 H16          1.2030    -0.0520     0.6270 ha         1 C4K       0.128000
     46 H17          5.0720     3.4800     1.6930 hn         1 C4K       0.380000
     47 H18          3.9000    -1.9320    -2.9360 ha         1 C4K       0.114000
     48 H19          0.0120    -1.2920    -1.6860 h1         1 C4K       0.049033
     49 H20         -0.4500    -0.0040    -2.8340 h1         1 C4K       0.049033
     50 H21          0.9370     0.2300    -1.7570 h1         1 C4K       0.049033
     51 C20          0.5870    -4.1250    -0.4150 c3         1 C4K      -0.048800
     52 H11         -4.7010    -2.0750    -2.2940 ha         1 C4K       0.137000
@<TRIPOS>BOND
     1     1     2 ar  
     2     1    19 ar  
     3     1    20 1   
     4     2     3 ar  
     5     2     4 1   
     6     3     6 ar  
     7     3    31 1   
     8     4    32 1   
     9     5     6 ar  
    10     5     7 1   
    11     5    19 ar  
    12     6    22 1   
    13     7     8 1   
    14     7    23 2   
    15     8     9 1   
    16     8    33 1   
    17     8    34 1   
    18     9    10 ar  
    19     9    12 ar  
    20    10    25 ar  
    21    10    35 1   
    22    11    24 ar  
    23    11    25 ar  
    24    11    36 1   
    25    12    24 ar  
    26    12    37 1   
    27    13    14 ar  
    28    13    17 ar  
    29    13    52 1   
    30    14    26 ar  
    31    14    41 1   
    32    15    26 ar  
    33    15    28 ar  
    34    15    42 1   
    35    16    20 1   
    36    16    26 1   
    37    16    27 1   
    38    17    28 ar  
    39    17    30 1   
    40    18    29 1   
    41    18    30 1   
    42    18    43 1   
    43    18    44 1   
    44    19    45 1   
    45    20    21 2   
    46    22    23 1   
    47    22    46 1   
    48    24    51 1   
    49    25    47 1   
    50    27    48 1   
    51    27    49 1   
    52    27    50 1   
    53    28    29 1   
    54    38    51 1   
    55    39    51 1   
    56    40    51 1   
@<TRIPOS>SUBSTRUCTURE
     1 C4K         1 TEMP              0 ****  ****    0 ROOT
