@<TRIPOS>MOLECULE
C4L
   27    26     1     0     0
SMALL
No Charge or Current Charge


@<TRIPOS>ATOM
      1 O1           1.8010    -1.4040     2.3550 o          1 C4L      -0.722500
      2 C4           1.9590    -1.5910     1.1550 c          1 C4L       0.717000
      3 O2           2.5600    -2.5550     0.7010 o          1 C4L      -0.722500
      4 C3           1.2740    -0.6130     0.1530 c3         1 C4L      -0.047300
      5 C2           1.9880     0.7640     0.1340 c3         1 C4L      -0.075400
      6 C1           1.4810     1.7290    -0.9570 c3         1 C4L       0.153600
      7 O3           2.2600     2.9290    -0.9420 oh         1 C4L      -0.671000
      8 N1          -0.1740    -0.4890     0.4600 ns         1 C4L      -0.461900
      9 C5          -1.1850    -0.3770    -0.4710 c          1 C4L       0.604100
     10 O4          -0.9810    -0.4140    -1.6760 o          1 C4L      -0.623100
     11 C6          -2.5930    -0.2420     0.1210 c3         1 C4L      -0.165400
     12 C7          -3.1310     1.2010    -0.0270 c3         1 C4L      -0.065400
     13 C8          -4.5430     1.3800     0.5640 c3         1 C4L      -0.089100
     14 H2           1.3770    -1.0640    -0.8420 h1         1 C4L       0.062700
     15 H3           1.8820     1.2420     1.1160 hc         1 C4L       0.059200
     16 H4           3.0610     0.5960    -0.0210 hc         1 C4L       0.059200
     17 H5           1.5590     1.2410    -1.9380 h1         1 C4L       0.010700
     18 H6           0.4240     1.9660    -0.7780 h1         1 C4L       0.010700
     19 H7           1.9050     3.5080    -1.6520 ho         1 C4L       0.419000
     20 H8          -0.4510    -0.4780     1.4350 hn         1 C4L       0.285500
     21 H9          -3.2670    -0.9210    -0.4140 hc         1 C4L       0.048700
     22 H10         -2.5780    -0.4970     1.1880 hc         1 C4L       0.048700
     23 H11         -2.4450     1.8980     0.4700 hc         1 C4L       0.048700
     24 H12         -3.1520     1.4760    -1.0890 hc         1 C4L       0.048700
     25 H13         -4.8820     2.4150     0.4360 hc         1 C4L       0.022033
     26 H14         -5.2600     0.7190     0.0630 hc         1 C4L       0.022033
     27 H15         -4.5470     1.1480     1.6360 hc         1 C4L       0.022033
@<TRIPOS>BOND
     1     1     2 1   
     2     2     3 1   
     3     2     4 1   
     4     4     5 1   
     5     4     8 1   
     6     4    14 1   
     7     5     6 1   
     8     5    15 1   
     9     5    16 1   
    10     6     7 1   
    11     6    17 1   
    12     6    18 1   
    13     7    19 1   
    14     8     9 1   
    15     8    20 1   
    16     9    10 2   
    17     9    11 1   
    18    11    12 1   
    19    11    21 1   
    20    11    22 1   
    21    12    13 1   
    22    12    23 1   
    23    12    24 1   
    24    13    25 1   
    25    13    26 1   
    26    13    27 1   
@<TRIPOS>SUBSTRUCTURE
     1 C4L         1 TEMP              0 ****  ****    0 ROOT
