@<TRIPOS>MOLECULE
C4L
   27    26     1     0     0
SMALL
bcc


@<TRIPOS>ATOM
      1 O1           0.5410    -2.1660     1.1220 o          1 C4L      -0.827800
      2 C4           1.3620    -1.7250     0.3020 c          1 C4L       0.927600
      3 O2           2.3630    -2.3100    -0.1580 o          1 C4L      -0.827800
      4 C3           1.1550    -0.2760    -0.2210 c3         1 C4L      -0.047300
      5 C2           2.3050     0.6270     0.2170 c3         1 C4L      -0.075400
      6 C1           2.2260     2.0170    -0.3870 c3         1 C4L       0.130400
      7 O3           3.3820     2.7370    -0.0100 oh         1 C4L      -0.608800
      8 N1          -0.1070     0.2910     0.1960 ns         1 C4L      -0.528900
      9 C5          -1.2800    -0.1340    -0.3020 c          1 C4L       0.671100
     10 O4          -1.3610    -0.8270    -1.3080 o          1 C4L      -0.623100
     11 C6          -2.5050     0.3150     0.4680 c3         1 C4L      -0.165400
     12 C7          -3.7510     0.4530    -0.3950 c3         1 C4L      -0.065400
     13 C8          -4.9720     0.8410     0.4280 c3         1 C4L      -0.089100
     14 H2           1.1590    -0.3180    -1.3140 h1         1 C4L       0.062700
     15 H3           2.3300     0.6990     1.3110 hc         1 C4L       0.059200
     16 H4           3.2380     0.1550    -0.0920 hc         1 C4L       0.059200
     17 H5           2.1480     1.9270    -1.4790 h1         1 C4L       0.010700
     18 H6           1.3160     2.5260    -0.0470 h1         1 C4L       0.010700
     19 H7           3.2930     3.6370    -0.3370 ho         1 C4L       0.380000
     20 H8          -0.1280     0.7380     1.0990 hn         1 C4L       0.285500
     21 H9          -2.6810    -0.4320     1.2500 hc         1 C4L       0.048700
     22 H10         -2.2990     1.2530     0.9920 hc         1 C4L       0.048700
     23 H11         -3.5800     1.2040    -1.1710 hc         1 C4L       0.048700
     24 H12         -3.9420    -0.4880    -0.9120 hc         1 C4L       0.048700
     25 H13         -5.8620     0.9170    -0.1970 hc         1 C4L       0.022033
     26 H14         -5.1760     0.1020     1.2050 hc         1 C4L       0.022033
     27 H15         -4.8320     1.8050     0.9200 hc         1 C4L       0.022033
@<TRIPOS>BOND
     1     1     2 1   
     2     2     3 1   
     3     2     4 1   
     4     4     5 1   
     5     4     8 1   
     6     4    14 1   
     7     5     6 1   
     8     5    15 1   
     9     5    16 1   
    10     6     7 1   
    11     6    17 1   
    12     6    18 1   
    13     7    19 1   
    14     8     9 1   
    15     8    20 1   
    16     9    10 2   
    17     9    11 1   
    18    11    12 1   
    19    11    21 1   
    20    11    22 1   
    21    12    13 1   
    22    12    23 1   
    23    12    24 1   
    24    13    25 1   
    25    13    26 1   
    26    13    27 1   
@<TRIPOS>SUBSTRUCTURE
     1 C4L         1 TEMP              0 ****  ****    0 ROOT
