@<TRIPOS>MOLECULE
C4M
   55    56     1     0     0
SMALL
abcg2


@<TRIPOS>ATOM
      1 C1           4.5560     4.0880    -0.8660 c3         1 C4M       0.147900
      2 O2           4.5110     3.1150     0.1600 os         1 C4M      -0.339100
      3 C3           3.9030     1.9430    -0.0700 ca         1 C4M       0.201100
      4 C4           3.3010     1.6310    -1.2790 ca         1 C4M      -0.238000
      5 C5           2.6940     0.4010    -1.5070 ca         1 C4M       0.072700
      6 C6           2.0900     0.2240    -2.8760 c3         1 C4M      -0.062800
      7 C7           2.6940    -0.5290    -0.4550 ca         1 C4M      -0.330500
      8 C8           3.2430    -0.2010     0.8060 ca         1 C4M       0.047700
      9 C9           3.1840    -1.1110     2.0070 c3         1 C4M      -0.067800
     10 C10          3.8810     1.0260     0.9900 ca         1 C4M      -0.138300
     11 C11          4.5330     1.3750     2.3000 c3         1 C4M      -0.037800
     12 S12          2.0200    -2.1670    -0.6860 sy         1 C4M       1.149600
     13 O13          2.8790    -3.1400    -0.0270 o          1 C4M      -0.539500
     14 O14          1.7410    -2.3720    -2.0970 o          1 C4M      -0.539500
     15 N15          0.5680    -2.2250     0.0910 n7         1 C4M      -0.868300
     16 C16         -0.4230    -1.2020    -0.2090 c3         1 C4M       0.175800
     17 C17         -1.7710    -1.6310     0.3640 c3         1 C4M       0.167300
     18 O18         -1.6540    -1.9500     1.7350 oh         1 C4M      -0.653000
     19 C19         -2.8450    -0.5640     0.1170 c3         1 C4M       0.130500
     20 N20         -2.8630    -0.2210    -1.2940 n8         1 C4M      -1.001200
     21 C21         -4.2090    -1.0230     0.6690 c3         1 C4M      -0.069100
     22 C22         -5.2470     0.0570     0.5550 ca         1 C4M      -0.088300
     23 C23         -5.3340     1.0520     1.5280 ca         1 C4M      -0.111000
     24 C24         -6.2550     2.0830     1.4150 ca         1 C4M      -0.106000
     25 C25         -7.1090     2.1390     0.3200 ca         1 C4M      -0.108000
     26 C26         -7.0330     1.1550    -0.6560 ca         1 C4M      -0.106000
     27 C27         -6.1080     0.1240    -0.5380 ca         1 C4M      -0.111000
     28 H1C1         5.0960     3.7290    -1.7460 h1         1 C4M       0.044700
     29 H1C2         3.5570     4.4090    -1.1690 h1         1 C4M       0.044700
     30 H1C3         5.0880     4.9410    -0.4540 h1         1 C4M       0.044700
     31 H4           3.2950     2.3490    -2.0870 ha         1 C4M       0.118000
     32 H6C1         2.6330    -0.5050    -3.4740 hc         1 C4M       0.060367
     33 H6C2         1.0490    -0.0910    -2.8440 hc         1 C4M       0.060367
     34 H6C3         2.1240     1.1750    -3.4050 hc         1 C4M       0.060367
     35 H9C1         4.0740    -1.7380     2.0760 hc         1 C4M       0.054700
     36 H9C2         3.1290    -0.5240     2.9200 hc         1 C4M       0.054700
     37 H9C3         2.3250    -1.7720     2.0240 hc         1 C4M       0.054700
     38 H111         5.1540     0.5580     2.6650 hc         1 C4M       0.045033
     39 H112         5.1680     2.2530     2.2160 hc         1 C4M       0.045033
     40 H113         3.7900     1.5830     3.0740 hc         1 C4M       0.045033
     41 H15          0.6480    -2.4500     1.0760 hn         1 C4M       0.490000
     42 H161        -0.1370    -0.2210     0.1950 h1         1 C4M       0.063200
     43 H162        -0.5190    -1.0990    -1.2870 h1         1 C4M       0.063200
     44 H17         -2.0720    -2.5620    -0.1290 h1         1 C4M       0.091700
     45 H18         -1.5000    -1.1350     2.2280 ho         1 C4M       0.435000
     46 H19         -2.5410     0.3400     0.6620 h1         1 C4M       0.056700
     47 H201        -3.2340    -0.9970    -1.8320 hn         1 C4M       0.404500
     48 H202        -3.4970     0.5530    -1.4510 hn         1 C4M       0.404500
     49 H211        -4.5260    -1.9130     0.1150 hc         1 C4M       0.061700
     50 H212        -4.1040    -1.3200     1.7140 hc         1 C4M       0.061700
     51 H23         -4.6730     1.0180     2.3880 ha         1 C4M       0.109500
     52 H24         -6.3100     2.8430     2.1840 ha         1 C4M       0.114000
     53 H25         -7.8290     2.9420     0.2300 ha         1 C4M       0.115000
     54 H26         -7.6950     1.1870    -1.5120 ha         1 C4M       0.114000
     55 H27         -6.0610    -0.6420    -1.3020 ha         1 C4M       0.109500
@<TRIPOS>BOND
     1     1     2 1   
     2     1    28 1   
     3     1    29 1   
     4     1    30 1   
     5     2     3 1   
     6     3     4 ar  
     7     3    10 ar  
     8     4     5 ar  
     9     4    31 1   
    10     5     6 1   
    11     5     7 ar  
    12     6    32 1   
    13     6    33 1   
    14     6    34 1   
    15     7     8 ar  
    16     7    12 1   
    17     8     9 1   
    18     8    10 ar  
    19     9    35 1   
    20     9    36 1   
    21     9    37 1   
    22    10    11 1   
    23    11    38 1   
    24    11    39 1   
    25    11    40 1   
    26    12    13 2   
    27    12    14 2   
    28    12    15 1   
    29    15    16 1   
    30    15    41 1   
    31    16    17 1   
    32    16    42 1   
    33    16    43 1   
    34    17    18 1   
    35    17    19 1   
    36    17    44 1   
    37    18    45 1   
    38    19    20 1   
    39    19    21 1   
    40    19    46 1   
    41    20    47 1   
    42    20    48 1   
    43    21    22 1   
    44    21    49 1   
    45    21    50 1   
    46    22    23 ar  
    47    22    27 ar  
    48    23    24 ar  
    49    23    51 1   
    50    24    25 ar  
    51    24    52 1   
    52    25    26 ar  
    53    25    53 1   
    54    26    27 ar  
    55    26    54 1   
    56    27    55 1   
@<TRIPOS>SUBSTRUCTURE
     1 C4M         1 TEMP              0 ****  ****    0 ROOT
