@<TRIPOS>MOLECULE
C4M
   55    56     1     0     0
SMALL
No Charge or Current Charge


@<TRIPOS>ATOM
      1 C1           4.0740     4.0580    -1.8060 c3         1 C4M       0.147900
      2 O2           3.8910     3.3960    -0.5410 os         1 C4M      -0.339100
      3 C3           3.5270     2.0640    -0.4300 ca         1 C4M       0.201100
      4 C4           3.3130     1.2780    -1.5690 ca         1 C4M      -0.238000
      5 C5           2.9450    -0.0700    -1.4710 ca         1 C4M       0.072700
      6 C6           2.7310    -0.7980    -2.8040 c3         1 C4M      -0.062800
      7 C7           2.7890    -0.6760    -0.1890 ca         1 C4M      -0.330500
      8 C8           2.9910     0.1280     0.9860 ca         1 C4M       0.047700
      9 C9           2.8110    -0.4590     2.3980 c3         1 C4M      -0.067800
     10 C10          3.3680     1.4990     0.8530 ca         1 C4M      -0.138300
     11 C11          3.6110     2.3840     2.0900 c3         1 C4M      -0.037800
     12 S12          2.3240    -2.4570    -0.1120 sy         1 C4M       1.149600
     13 O13          2.2350    -2.9670     1.2550 o          1 C4M      -0.539500
     14 O14          3.0470    -3.1960    -1.1480 o          1 C4M      -0.539500
     15 N15          0.7460    -2.4120    -0.6420 n7         1 C4M      -0.868300
     16 C16         -0.1410    -1.3580    -0.0970 c3         1 C4M       0.175800
     17 C17         -1.6320    -1.6750    -0.4160 c3         1 C4M       0.167300
     18 O18         -1.9530    -2.9990     0.0750 oh         1 C4M      -0.653000
     19 C19         -2.6240    -0.6120     0.1750 c3         1 C4M       0.130500
     20 N20         -2.3190     0.7640    -0.2860 n8         1 C4M      -1.001200
     21 C21         -4.1150    -0.9310    -0.1240 c3         1 C4M      -0.069100
     22 C22         -5.0880     0.1100     0.4310 ca         1 C4M      -0.088300
     23 C23         -5.2500     0.2570     1.8230 ca         1 C4M      -0.111000
     24 C24         -6.1440     1.2120     2.3380 ca         1 C4M      -0.106000
     25 C25         -6.8840     2.0250     1.4640 ca         1 C4M      -0.108000
     26 C26         -6.7300     1.8820     0.0740 ca         1 C4M      -0.106000
     27 C27         -5.8360     0.9270    -0.4400 ca         1 C4M      -0.111000
     28 H1C1         4.8690     3.5740    -2.3890 h1         1 C4M       0.044700
     29 H1C2         3.1470     4.0450    -2.3920 h1         1 C4M       0.044700
     30 H1C3         4.3610     5.1050    -1.6480 h1         1 C4M       0.044700
     31 H4           3.4300     1.7090    -2.5570 ha         1 C4M       0.118000
     32 H6C1         3.5540    -1.4900    -3.0160 hc         1 C4M       0.060367
     33 H6C2         1.7890    -1.3550    -2.8300 hc         1 C4M       0.060367
     34 H6C3         2.6870    -0.1000    -3.6480 hc         1 C4M       0.060367
     35 H9C1         3.5380    -1.2570     2.5860 hc         1 C4M       0.054700
     36 H9C2         2.9420     0.2530     3.2170 hc         1 C4M       0.054700
     37 H9C3         1.8000    -0.8570     2.5340 hc         1 C4M       0.054700
     38 H111         4.3930     1.9590     2.7300 hc         1 C4M       0.045033
     39 H112         3.9360     3.4030     1.8520 hc         1 C4M       0.045033
     40 H113         2.6960     2.4840     2.6860 hc         1 C4M       0.045033
     41 H15          0.4070    -3.3110    -0.3050 hn         1 C4M       0.490000
     42 H161        -0.0340    -1.2790     0.9940 h1         1 C4M       0.063200
     43 H162         0.1200    -0.3800    -0.5230 h1         1 C4M       0.063200
     44 H17         -1.7380    -1.6570    -1.5100 h1         1 C4M       0.091700
     45 H18         -2.0120    -2.9440     1.0530 ho         1 C4M       0.435000
     46 H19         -2.4960    -0.6150     1.2680 h1         1 C4M       0.056700
     47 H201        -2.5070     0.8320    -1.2920 hn         1 C4M       0.404500
     48 H202        -3.0220     1.3950     0.1180 hn         1 C4M       0.404500
     49 H211        -4.2470    -1.0380    -1.2080 hc         1 C4M       0.061700
     50 H212        -4.3670    -1.9090     0.3030 hc         1 C4M       0.061700
     51 H23         -4.6840    -0.3710     2.5080 ha         1 C4M       0.109500
     52 H24         -6.2640     1.3200     3.4140 ha         1 C4M       0.114000
     53 H25         -7.5760     2.7640     1.8620 ha         1 C4M       0.115000
     54 H26         -7.3040     2.5100    -0.6040 ha         1 C4M       0.114000
     55 H27         -5.7260     0.8240    -1.5180 ha         1 C4M       0.109500
@<TRIPOS>BOND
     1     1     2 1   
     2     1    28 1   
     3     1    29 1   
     4     1    30 1   
     5     2     3 1   
     6     3     4 ar  
     7     3    10 ar  
     8     4     5 ar  
     9     4    31 1   
    10     5     6 1   
    11     5     7 ar  
    12     6    32 1   
    13     6    33 1   
    14     6    34 1   
    15     7     8 ar  
    16     7    12 1   
    17     8     9 1   
    18     8    10 ar  
    19     9    35 1   
    20     9    36 1   
    21     9    37 1   
    22    10    11 1   
    23    11    38 1   
    24    11    39 1   
    25    11    40 1   
    26    12    13 2   
    27    12    14 2   
    28    12    15 1   
    29    15    16 1   
    30    15    41 1   
    31    16    17 1   
    32    16    42 1   
    33    16    43 1   
    34    17    18 1   
    35    17    19 1   
    36    17    44 1   
    37    18    45 1   
    38    19    20 1   
    39    19    21 1   
    40    19    46 1   
    41    20    47 1   
    42    20    48 1   
    43    21    22 1   
    44    21    49 1   
    45    21    50 1   
    46    22    23 ar  
    47    22    27 ar  
    48    23    24 ar  
    49    23    51 1   
    50    24    25 ar  
    51    24    52 1   
    52    25    26 ar  
    53    25    53 1   
    54    26    27 ar  
    55    26    54 1   
    56    27    55 1   
@<TRIPOS>SUBSTRUCTURE
     1 C4M         1 TEMP              0 ****  ****    0 ROOT
