@<TRIPOS>MOLECULE
C4N
   52    55     1     0     0
SMALL
abcg2


@<TRIPOS>ATOM
      1 C1           0.7180     2.4870    -0.3800 ca         1 C4N      -0.286600
      2 C2           1.3630     3.7630    -0.4040 ca         1 C4N       0.233100
      3 C3           2.5470     3.9750     0.2750 ca         1 C4N      -0.212000
      4 O5           0.8440     4.7800    -1.1040 oh         1 C4N      -0.544100
      5 C9           2.3740     1.6860     1.1520 ca         1 C4N      -0.282900
      6 C10          3.0440     2.9170     1.0400 ca         1 C4N       0.027800
      7 C13          3.1760     0.9120     2.0460 cc         1 C4N       0.381900
      8 C14          2.9010    -0.4610     2.5660 c3         1 C4N      -0.043400
      9 C15          2.3800    -1.4040     1.5100 ca         1 C4N      -0.079300
     10 C16          1.1430    -2.0190     1.6570 ca         1 C4N      -0.115000
     11 C19          0.6640    -2.8760     0.6720 ca         1 C4N      -0.107000
     12 C20          3.1260    -1.6620     0.3610 ca         1 C4N      -0.101000
     13 C21          0.2040     0.1230    -2.0250 c3         1 C4N       0.087300
     14 C22         -2.1620     0.7520    -2.0710 c3         1 C4N       0.139300
     15 C24         -2.6660    -0.6360    -0.0400 ca         1 C4N      -0.088000
     16 C27         -2.9550    -1.8390     0.5810 ca         1 C4N      -0.106000
     17 C4           1.2080     1.4770     0.4240 ca         1 C4N       0.049000
     18 C6          -0.5500     2.3090    -1.1270 c          1 C4N       0.634700
     19 N7          -0.8090     1.1030    -1.6670 n          1 C4N      -0.401800
     20 O8          -1.3430     3.2550    -1.2130 o          1 C4N      -0.641100
     21 N11          4.1410     2.8030     1.8150 na         1 C4N      -0.067400
     22 N12          4.2220     1.6020     2.4160 nd         1 C4N      -0.523100
     23 C17          1.4160    -3.1210    -0.4650 ca         1 C4N      -0.115000
     24 C18          2.6600    -2.5110    -0.6360 ca         1 C4N      -0.079300
     25 C23         -2.5570    -0.5520    -1.4250 ca         1 C4N      -0.105300
     26 C25         -3.1350    -2.9720    -0.1980 ca         1 C4N       0.120000
     27 C26         -3.0440    -2.9160    -1.5780 ca         1 C4N      -0.106000
     28 C28         -2.7520    -1.6990    -2.1820 ca         1 C4N      -0.088000
     29 CL          -3.4580    -4.4900     0.5770 cl         1 C4N      -0.203000
     30 H1           3.0400     4.9380     0.2370 ha         1 C4N       0.139000
     31 H2          -0.0830     4.5580    -1.3180 ho         1 C4N       0.510000
     32 H3           3.8170    -0.8550     3.0140 hc         1 C4N       0.068200
     33 H4           2.1660    -0.3940     3.3740 hc         1 C4N       0.068200
     34 H5           0.5460    -1.8250     2.5400 ha         1 C4N       0.112000
     35 H6          -0.3030    -3.3480     0.7920 ha         1 C4N       0.119000
     36 H7           4.0930    -1.1850     0.2360 ha         1 C4N       0.118000
     37 H8           0.2470    -0.7150    -1.3290 h1         1 C4N       0.047700
     38 H9          -0.0400    -0.2730    -3.0120 h1         1 C4N       0.047700
     39 H10          1.1850     0.5820    -2.0840 h1         1 C4N       0.047700
     40 H11         -2.8400     1.5510    -1.7740 h1         1 C4N       0.069700
     41 H12         -2.2160     0.6670    -3.1600 h1         1 C4N       0.069700
     42 H14         -3.0310    -1.8940     1.6590 ha         1 C4N       0.131000
     43 H18          0.6900     0.5300     0.4910 ha         1 C4N       0.131000
     44 H19          4.8510     3.4940     1.9890 hn         1 C4N       0.379000
     45 H20          1.0320    -3.7840    -1.2310 ha         1 C4N       0.112000
     46 H21         -3.1860    -3.8040    -2.1790 ha         1 C4N       0.131000
     47 H22         -2.6660    -1.6550    -3.2610 ha         1 C4N       0.121000
     48 C30          3.4600    -2.7500    -1.8840 c3         1 C4N      -0.047800
     49 H13         -2.5180     0.2450     0.5740 ha         1 C4N       0.121000
     50 H15          3.0180    -2.2320    -2.7370 hc         1 C4N       0.042367
     51 H16          4.4840    -2.3930    -1.7780 hc         1 C4N       0.042367
     52 H17          3.4980    -3.8100    -2.1390 hc         1 C4N       0.042367
@<TRIPOS>BOND
     1     1     2 ar  
     2     1    17 ar  
     3     1    18 1   
     4     2     3 ar  
     5     2     4 1   
     6     3     6 ar  
     7     3    30 1   
     8     4    31 1   
     9     5     6 ar  
    10     5     7 1   
    11     5    17 ar  
    12     6    21 1   
    13     7     8 1   
    14     7    22 2   
    15     8     9 1   
    16     8    32 1   
    17     8    33 1   
    18     9    10 ar  
    19     9    12 ar  
    20    10    11 ar  
    21    10    34 1   
    22    11    23 ar  
    23    11    35 1   
    24    12    24 ar  
    25    12    36 1   
    26    13    19 1   
    27    13    37 1   
    28    13    38 1   
    29    13    39 1   
    30    14    19 1   
    31    14    25 1   
    32    14    40 1   
    33    14    41 1   
    34    15    16 ar  
    35    15    25 ar  
    36    15    49 1   
    37    16    26 ar  
    38    16    42 1   
    39    17    43 1   
    40    18    19 1   
    41    18    20 2   
    42    21    22 1   
    43    21    44 1   
    44    23    24 ar  
    45    23    45 1   
    46    24    48 1   
    47    25    28 ar  
    48    26    27 ar  
    49    26    29 1   
    50    27    28 ar  
    51    27    46 1   
    52    28    47 1   
    53    48    50 1   
    54    48    51 1   
    55    48    52 1   
@<TRIPOS>SUBSTRUCTURE
     1 C4N         1 TEMP              0 ****  ****    0 ROOT
