@<TRIPOS>MOLECULE
C4N
   52    55     1     0     0
SMALL
No Charge or Current Charge


@<TRIPOS>ATOM
      1 C1           0.8310     2.5780    -0.3860 ca         1 C4N      -0.286600
      2 C2           1.5320     3.8040    -0.5310 ca         1 C4N       0.233100
      3 C3           2.7510     4.0250     0.1380 ca         1 C4N      -0.212000
      4 O5           1.0300     4.7860    -1.3230 oh         1 C4N      -0.544100
      5 C9           2.5480     1.8510     1.1500 ca         1 C4N      -0.282900
      6 C10          3.2300     3.0070     0.9660 ca         1 C4N       0.027800
      7 C13          3.3300     1.0730     2.0830 cc         1 C4N       0.381900
      8 C14          2.9700    -0.2850     2.6360 c3         1 C4N      -0.043400
      9 C15          2.4140    -1.2690     1.6080 ca         1 C4N      -0.079300
     10 C16          1.1990    -1.9410     1.8500 ca         1 C4N      -0.115000
     11 C19          0.6860    -2.8410     0.9020 ca         1 C4N      -0.107000
     12 C20          3.1080    -1.5120     0.4060 ca         1 C4N      -0.101000
     13 C21          0.1780     0.0270    -1.8500 c3         1 C4N       0.087300
     14 C22         -2.2320     0.7190    -1.8120 c3         1 C4N       0.139300
     15 C24         -2.7170    -1.0260    -0.0310 ca         1 C4N      -0.088000
     16 C27         -3.0790    -2.3260     0.3600 ca         1 C4N      -0.106000
     17 C4           1.3330     1.5950     0.5040 ca         1 C4N       0.049000
     18 C6          -0.4530     2.3440    -1.1350 c          1 C4N       0.634700
     19 N7          -0.8380     1.0180    -1.4180 n          1 C4N      -0.401800
     20 O8          -1.1690     3.2930    -1.4360 o          1 C4N      -0.641100
     21 N11          4.3650     2.9360     1.7410 na         1 C4N      -0.067400
     22 N12          4.4440     1.7290     2.4520 nd         1 C4N      -0.523100
     23 C17          1.3830    -3.0780    -0.2930 ca         1 C4N      -0.115000
     24 C18          2.5970    -2.4130    -0.5480 ca         1 C4N      -0.079300
     25 C23         -2.6660    -0.6830    -1.3970 ca         1 C4N      -0.105300
     26 C25         -3.3900    -3.2890    -0.6120 ca         1 C4N       0.120000
     27 C26         -3.3430    -2.9550    -1.9750 ca         1 C4N      -0.106000
     28 C28         -2.9810    -1.6540    -2.3680 ca         1 C4N      -0.088000
     29 Cl          -3.8340    -4.9190    -0.1230 cl         1 C4N      -0.203000
     30 H1           3.2940     4.9580     0.0170 ha         1 C4N       0.139000
     31 H2           0.1050     4.5020    -1.5420 ho         1 C4N       0.510000
     32 H3           3.8570    -0.7280     3.1060 hc         1 C4N       0.068200
     33 H4           2.2500    -0.1400     3.4490 hc         1 C4N       0.068200
     34 H5           0.6490    -1.7650     2.7720 ha         1 C4N       0.112000
     35 H6          -0.2540    -3.3550     1.0940 ha         1 C4N       0.119000
     36 H7           4.0450    -0.9950     0.2090 ha         1 C4N       0.118000
     37 H8           0.2860    -0.7430    -1.0780 h1         1 C4N       0.047700
     38 H9          -0.1370    -0.4550    -2.7840 h1         1 C4N       0.047700
     39 H10          1.1490     0.5070    -2.0230 h1         1 C4N       0.047700
     40 H11         -2.9090     1.4430    -1.3400 h1         1 C4N       0.069700
     41 H12         -2.3270     0.8380    -2.8990 h1         1 C4N       0.069700
     42 H14         -3.1130    -2.5890     1.4150 ha         1 C4N       0.131000
     43 H18          0.7910     0.6730     0.6970 ha         1 C4N       0.131000
     44 H19          5.0830     3.6540     1.8190 hn         1 C4N       0.379000
     45 H20          0.9750    -3.7730    -1.0240 ha         1 C4N       0.112000
     46 H21         -3.5820    -3.7040    -2.7260 ha         1 C4N       0.131000
     47 H22         -2.9380    -1.4050    -3.4270 ha         1 C4N       0.121000
     48 C30          3.3440    -2.6530    -1.8500 c3         1 C4N      -0.047800
     49 H13         -2.4660    -0.2860     0.7270 ha         1 C4N       0.121000
     50 H15          3.0400    -1.9260    -2.6130 hc         1 C4N       0.042367
     51 H16          4.4280    -2.5620    -1.7120 hc         1 C4N       0.042367
     52 H17          3.1460    -3.6560    -2.2470 hc         1 C4N       0.042367
@<TRIPOS>BOND
     1     1     2 ar  
     2     1    17 ar  
     3     1    18 1   
     4     2     3 ar  
     5     2     4 1   
     6     3     6 ar  
     7     3    30 1   
     8     4    31 1   
     9     5     6 ar  
    10     5     7 1   
    11     5    17 ar  
    12     6    21 1   
    13     7     8 1   
    14     7    22 2   
    15     8     9 1   
    16     8    32 1   
    17     8    33 1   
    18     9    10 ar  
    19     9    12 ar  
    20    10    11 ar  
    21    10    34 1   
    22    11    23 ar  
    23    11    35 1   
    24    12    24 ar  
    25    12    36 1   
    26    13    19 1   
    27    13    37 1   
    28    13    38 1   
    29    13    39 1   
    30    14    19 1   
    31    14    25 1   
    32    14    40 1   
    33    14    41 1   
    34    15    16 ar  
    35    15    25 ar  
    36    15    49 1   
    37    16    26 ar  
    38    16    42 1   
    39    17    43 1   
    40    18    19 1   
    41    18    20 2   
    42    21    22 1   
    43    21    44 1   
    44    23    24 ar  
    45    23    45 1   
    46    24    48 1   
    47    25    28 ar  
    48    26    27 ar  
    49    26    29 1   
    50    27    28 ar  
    51    27    46 1   
    52    28    47 1   
    53    48    50 1   
    54    48    51 1   
    55    48    52 1   
@<TRIPOS>SUBSTRUCTURE
     1 C4N         1 TEMP              0 ****  ****    0 ROOT
