@<TRIPOS>MOLECULE
C4O
   15    15     1     0     0
SMALL
bcc


@<TRIPOS>ATOM
      1 CAE        -40.1750    24.0840    -7.2580 c3         1 C4O      -0.047800
      2 CAB        -40.9000    24.4370    -8.5240 ca         1 C4O      -0.072300
      3 CAC        -42.2350    24.0840    -8.7070 ca         1 C4O      -0.122000
      4 CAF        -42.9230    24.4300    -9.8610 ca         1 C4O      -0.118000
      5 CAH        -42.2640    25.1400   -10.8510 ca         1 C4O       0.024400
      6 CL         -43.1130    25.5730   -12.3020 cl         1 C4O      -0.116400
      7 CAG        -40.9360    25.5040   -10.7010 ca         1 C4O      -0.118000
      8 CAD        -40.2660    25.1480    -9.5390 ca         1 C4O      -0.122000
      9 H1         -40.3020    24.8660    -6.5070 hc         1 C4O       0.044367
     10 H2         -40.5530    23.1570    -6.8260 hc         1 C4O       0.044367
     11 H3         -39.1050    23.9670    -7.4280 hc         1 C4O       0.044367
     12 H4         -42.7530    23.5240    -7.9370 ha         1 C4O       0.133000
     13 H5         -43.9590    24.1430    -9.9860 ha         1 C4O       0.146000
     14 H6         -40.4250    26.0560   -11.4790 ha         1 C4O       0.146000
     15 H7         -39.2260    25.4320    -9.4270 ha         1 C4O       0.133000
@<TRIPOS>BOND
     1     1     2 1   
     2     1     9 1   
     3     1    10 1   
     4     1    11 1   
     5     2     3 ar  
     6     2     8 ar  
     7     3     4 ar  
     8     3    12 1   
     9     4     5 ar  
    10     4    13 1   
    11     5     6 1   
    12     5     7 ar  
    13     7     8 ar  
    14     7    14 1   
    15     8    15 1   
@<TRIPOS>SUBSTRUCTURE
     1 C4O         1 TEMP              0 ****  ****    0 ROOT
