@<TRIPOS>MOLECULE
C4O
   15    15     1     0     0
SMALL
No Charge or Current Charge


@<TRIPOS>ATOM
      1 CAE        -40.1640    24.0760    -7.2410 c3         1 C4O      -0.047800
      2 CAB        -40.9040    24.4460    -8.5180 ca         1 C4O      -0.072300
      3 CAC        -42.2520    24.0780    -8.6890 ca         1 C4O      -0.104000
      4 CAF        -42.9370    24.4230    -9.8680 ca         1 C4O      -0.100000
      5 CAH        -42.2760    25.1400   -10.8790 ca         1 C4O       0.116000
      6 Cl         -43.1320    25.5720   -12.3530 cl         1 C4O      -0.208000
      7 CAG        -40.9320    25.5120   -10.7130 ca         1 C4O      -0.100000
      8 CAD        -40.2470    25.1670    -9.5340 ca         1 C4O      -0.104000
      9 H1         -40.2730    24.8630    -6.4850 hc         1 C4O       0.044367
     10 H2         -40.5490    23.1430    -6.8120 hc         1 C4O       0.044367
     11 H3         -39.0920    23.9350    -7.4260 hc         1 C4O       0.044367
     12 H4         -42.7710    23.5250    -7.9090 ha         1 C4O       0.115000
     13 H5         -43.9780    24.1370    -9.9980 ha         1 C4O       0.128000
     14 H6         -40.4230    26.0680   -11.4970 ha         1 C4O       0.128000
     15 H7         -39.2060    25.4610    -9.4120 ha         1 C4O       0.115000
@<TRIPOS>BOND
     1     1     2 1   
     2     1     9 1   
     3     1    10 1   
     4     1    11 1   
     5     2     3 ar  
     6     2     8 ar  
     7     3     4 ar  
     8     3    12 1   
     9     4     5 ar  
    10     4    13 1   
    11     5     6 1   
    12     5     7 ar  
    13     7     8 ar  
    14     7    14 1   
    15     8    15 1   
@<TRIPOS>SUBSTRUCTURE
     1 C4O         1 TEMP              0 ****  ****    0 ROOT
