@<TRIPOS>MOLECULE
C4P
   61    63     1     0     0
SMALL
No Charge or Current Charge


@<TRIPOS>ATOM
      1 N43         -0.1640     0.3340     1.6800 ns         1 C4P      -0.505900
      2 C40          0.9690    -0.3100     2.1160 c          1 C4P       0.658100
      3 O41          1.2160    -1.4650     1.8050 o          1 C4P      -0.635100
      4 N1           1.8310     0.4480     2.9330 n          1 C4P      -0.403800
      5 C2           2.9750    -0.2340     3.6200 c6         1 C4P       0.056500
      6 C3           4.0110     0.7050     4.2870 c6         1 C4P       0.143600
      7 O4           3.3480     1.7500     5.0190 os         1 C4P      -0.445000
      8 C5           2.5660     2.5980     4.1610 c6         1 C4P       0.143600
      9 C6           1.4320     1.7920     3.4750 c6         1 C4P       0.056500
     10 C44         -1.2710    -0.3010     0.9260 c3         1 C4P       0.044700
     11 C45         -1.7960     0.6520    -0.1860 c          1 C4P       0.603100
     12 O46         -1.5160     1.8450    -0.2320 o          1 C4P      -0.600100
     13 N54         -2.6210     0.0580    -1.1220 ns         1 C4P      -0.484900
     14 C55         -3.1940     0.7380    -2.3130 c3         1 C4P       0.003700
     15 C56         -4.7190     0.4960    -2.4130 c          1 C4P       0.555900
     16 O57         -5.3400    -0.2970    -1.7090 o          1 C4P      -0.496100
     17 C58         -2.4880     0.3070    -3.6200 c3         1 C4P       0.038600
     18 S1          -0.6790     0.7000    -3.5860 ss         1 C4P      -0.398000
     19 C1          -0.1680    -0.0030    -5.2180 c3         1 C4P       0.110900
     20 C62          1.3260     0.1840    -5.4400 ca         1 C4P      -0.083300
     21 C67          2.2380    -0.7860    -4.9800 ca         1 C4P      -0.090500
     22 C66          3.6190    -0.6140    -5.1850 ca         1 C4P      -0.110000
     23 C65          4.0940     0.5290    -5.8500 ca         1 C4P      -0.100000
     24 C64          3.1880     1.5010    -6.3090 ca         1 C4P      -0.110000
     25 C63          1.8080     1.3290    -6.1040 ca         1 C4P      -0.090500
     26 C47         -2.4140    -0.7330     1.8850 c3         1 C4P      -0.054100
     27 C48         -1.9420    -1.6170     3.0340 ca         1 C4P      -0.080300
     28 C49         -1.6480    -1.0540     4.2930 ca         1 C4P      -0.100500
     29 C51         -1.1980    -1.8680     5.3460 ca         1 C4P      -0.106000
     30 C53         -1.0420    -3.2510     5.1500 ca         1 C4P      -0.106000
     31 C52         -1.3360    -3.8180     3.8980 ca         1 C4P      -0.106000
     32 C50         -1.7830    -3.0040     2.8430 ca         1 C4P      -0.100500
     33 H43         -0.2600     1.3070     1.9360 hn         1 C4P       0.324500
     34 H21          3.5040    -0.8730     2.8990 h1         1 C4P       0.054950
     35 H22          2.5620    -0.8990     4.3920 h1         1 C4P       0.054950
     36 H31          4.6560     1.1560     3.5180 h1         1 C4P       0.054450
     37 H32          4.6510     0.1310     4.9710 h1         1 C4P       0.054450
     38 H51A         3.2230     3.0400     3.3980 h1         1 C4P       0.054450
     39 H52A         2.1370     3.4180     4.7530 h1         1 C4P       0.054450
     40 H61          1.0280     2.4140     2.6640 h1         1 C4P       0.054950
     41 H62          0.6220     1.6420     4.2040 h1         1 C4P       0.054950
     42 H44         -0.8870    -1.1940     0.4150 h1         1 C4P       0.099700
     43 H54         -2.8220    -0.9280    -0.9910 hn         1 C4P       0.324500
     44 H55         -3.0730     1.8240    -2.2060 h1         1 C4P       0.108700
     45 H56         -5.2430     1.1040    -3.1830 h4         1 C4P      -0.005800
     46 H581        -2.9440     0.8240    -4.4750 h1         1 C4P       0.065200
     47 H582        -2.6140    -0.7740    -3.7680 h1         1 C4P       0.065200
     48 H11         -0.7310     0.4960    -6.0170 h1         1 C4P       0.062700
     49 H12         -0.4180    -1.0720    -5.2430 h1         1 C4P       0.062700
     50 H67          1.8780    -1.6720    -4.4620 ha         1 C4P       0.114500
     51 H66          4.3190    -1.3660    -4.8280 ha         1 C4P       0.115500
     52 H65          5.1620     0.6620    -6.0090 ha         1 C4P       0.114000
     53 H64          3.5550     2.3870    -6.8220 ha         1 C4P       0.115500
     54 H63          1.1130     2.0870    -6.4590 ha         1 C4P       0.114500
     55 H471        -3.1890    -1.2580     1.3120 hc         1 C4P       0.062700
     56 H472        -2.8980     0.1680     2.2840 hc         1 C4P       0.062700
     57 H49         -1.7620     0.0150     4.4530 ha         1 C4P       0.106500
     58 H51         -0.9690    -1.4270     6.3140 ha         1 C4P       0.111500
     59 H53         -0.6930    -3.8810     5.9650 ha         1 C4P       0.112000
     60 H52         -1.2130    -4.8880     3.7440 ha         1 C4P       0.111500
     61 H50         -2.0020    -3.4500     1.8760 ha         1 C4P       0.106500
@<TRIPOS>BOND
     1     1     2 1   
     2     1    10 1   
     3     1    33 1   
     4     2     3 2   
     5     2     4 1   
     6     4     5 1   
     7     4     9 1   
     8     5     6 1   
     9     5    34 1   
    10     5    35 1   
    11     6     7 1   
    12     6    36 1   
    13     6    37 1   
    14     7     8 1   
    15     8     9 1   
    16     8    38 1   
    17     8    39 1   
    18     9    40 1   
    19     9    41 1   
    20    10    11 1   
    21    10    26 1   
    22    10    42 1   
    23    11    12 2   
    24    11    13 1   
    25    13    14 1   
    26    13    43 1   
    27    14    15 1   
    28    14    17 1   
    29    14    44 1   
    30    15    16 2   
    31    15    45 1   
    32    17    18 1   
    33    17    46 1   
    34    17    47 1   
    35    18    19 1   
    36    19    20 1   
    37    19    48 1   
    38    19    49 1   
    39    20    21 ar  
    40    20    25 ar  
    41    21    22 ar  
    42    21    50 1   
    43    22    23 ar  
    44    22    51 1   
    45    23    24 ar  
    46    23    52 1   
    47    24    25 ar  
    48    24    53 1   
    49    25    54 1   
    50    26    27 1   
    51    26    55 1   
    52    26    56 1   
    53    27    28 ar  
    54    27    32 ar  
    55    28    29 ar  
    56    28    57 1   
    57    29    30 ar  
    58    29    58 1   
    59    30    31 ar  
    60    30    59 1   
    61    31    32 ar  
    62    31    60 1   
    63    32    61 1   
@<TRIPOS>SUBSTRUCTURE
     1 C4P         1 TEMP              0 ****  ****    0 ROOT
