@<TRIPOS>MOLECULE
C4P
   61    63     1     0     0
SMALL
abcg2


@<TRIPOS>ATOM
      1 N43         -0.0730     0.7130     2.0200 ns         1 C4P      -0.505900
      2 C40          1.0360     0.1620     2.5860 c          1 C4P       0.658100
      3 O41          1.5650    -0.8380     2.1180 o          1 C4P      -0.635100
      4 N1           1.5640     0.8140     3.6750 n          1 C4P      -0.403800
      5 C2           2.5630     0.0930     4.4500 c6         1 C4P       0.056500
      6 C3           3.4250     1.0640     5.2310 c6         1 C4P       0.143600
      7 O4           2.6470     1.9100     6.0470 os         1 C4P      -0.445000
      8 C5           1.7530     2.6580     5.2600 c6         1 C4P       0.143600
      9 C6           0.8080     1.7690     4.4690 c6         1 C4P       0.056500
     10 C44         -0.8640    -0.0050     1.0610 c3         1 C4P       0.044700
     11 C45         -1.3890     0.9570     0.0060 c          1 C4P       0.603100
     12 O46         -1.6390     2.1230     0.2600 o          1 C4P      -0.600100
     13 N54         -1.5950     0.4030    -1.2020 ns         1 C4P      -0.484900
     14 C55         -2.3420     1.0640    -2.2330 c3         1 C4P       0.003700
     15 C56         -3.8290     1.0830    -1.9320 c          1 C4P       0.555900
     16 O57         -4.3240     0.5910    -0.9550 o          1 C4P      -0.496100
     17 C58         -2.1190     0.3980    -3.5860 c3         1 C4P       0.038600
     18 S1          -0.3620     0.4960    -4.0290 ss         1 C4P      -0.398000
     19 C1          -0.4280    -0.2730    -5.6790 c3         1 C4P       0.110900
     20 C62          0.9630    -0.2890    -6.2370 ca         1 C4P      -0.083300
     21 C67          1.8330    -1.3350    -5.9370 ca         1 C4P      -0.090500
     22 C66          3.1310    -1.3350    -6.4280 ca         1 C4P      -0.110000
     23 C65          3.5760    -0.2850    -7.2210 ca         1 C4P      -0.100000
     24 C64          2.7170     0.7640    -7.5200 ca         1 C4P      -0.110000
     25 C63          1.4190     0.7630    -7.0270 ca         1 C4P      -0.090500
     26 C47         -2.0740    -0.7020     1.7270 c3         1 C4P      -0.054100
     27 C48         -1.6280    -1.6450     2.8050 ca         1 C4P      -0.080300
     28 C49         -1.5400    -1.2210     4.1280 ca         1 C4P      -0.100500
     29 C51         -1.0590    -2.0680     5.1170 ca         1 C4P      -0.106000
     30 C53         -0.6670    -3.3600     4.7960 ca         1 C4P      -0.106000
     31 C52         -0.7620    -3.7980     3.4800 ca         1 C4P      -0.106000
     32 C50         -1.2360    -2.9450     2.4950 ca         1 C4P      -0.100500
     33 H43         -0.5110     1.5250     2.4210 hn         1 C4P       0.324500
     34 H21          3.2000    -0.4870     3.7870 h1         1 C4P       0.054950
     35 H22          2.0740    -0.6090     5.1380 h1         1 C4P       0.054950
     36 H31          4.0330     1.6560     4.5340 h1         1 C4P       0.054450
     37 H32          4.1020     0.5080     5.8810 h1         1 C4P       0.054450
     38 H51A         2.3030     3.3050     4.5620 h1         1 C4P       0.054450
     39 H52A         1.1730     3.2960     5.9270 h1         1 C4P       0.054450
     40 H61          0.2160     2.4350     3.8430 h1         1 C4P       0.054950
     41 H62          0.1200     1.2520     5.1500 h1         1 C4P       0.054950
     42 H44         -0.2320    -0.7590     0.5920 h1         1 C4P       0.099700
     43 H54         -1.4080    -0.5820    -1.3190 hn         1 C4P       0.324500
     44 H55         -2.0280     2.1110    -2.3110 h1         1 C4P       0.108700
     45 H56         -4.4360     1.6010    -2.6950 h4         1 C4P      -0.005800
     46 H581        -2.7130     0.9110    -4.3440 h1         1 C4P       0.065200
     47 H582        -2.4370    -0.6470    -3.5580 h1         1 C4P       0.065200
     48 H11         -1.1010     0.3020    -6.3160 h1         1 C4P       0.062700
     49 H12         -0.8270    -1.2840    -5.5810 h1         1 C4P       0.062700
     50 H67          1.4900    -2.1570    -5.3200 ha         1 C4P       0.114500
     51 H66          3.7970    -2.1550    -6.1910 ha         1 C4P       0.115500
     52 H65          4.5880    -0.2860    -7.6060 ha         1 C4P       0.114000
     53 H64          3.0570     1.5860    -8.1380 ha         1 C4P       0.115500
     54 H63          0.7510     1.5830    -7.2630 ha         1 C4P       0.114500
     55 H471        -2.6490    -1.2310     0.9640 hc         1 C4P       0.062700
     56 H472        -2.7310     0.0640     2.1460 hc         1 C4P       0.062700
     57 H49         -1.8550    -0.2170     4.3890 ha         1 C4P       0.106500
     58 H51         -0.9960    -1.7200     6.1410 ha         1 C4P       0.111500
     59 H53         -0.2960    -4.0250     5.5660 ha         1 C4P       0.112000
     60 H52         -0.4640    -4.8060     3.2220 ha         1 C4P       0.111500
     61 H50         -1.2990    -3.2920     1.4700 ha         1 C4P       0.106500
@<TRIPOS>BOND
     1     1     2 1   
     2     1    10 1   
     3     1    33 1   
     4     2     3 2   
     5     2     4 1   
     6     4     5 1   
     7     4     9 1   
     8     5     6 1   
     9     5    34 1   
    10     5    35 1   
    11     6     7 1   
    12     6    36 1   
    13     6    37 1   
    14     7     8 1   
    15     8     9 1   
    16     8    38 1   
    17     8    39 1   
    18     9    40 1   
    19     9    41 1   
    20    10    11 1   
    21    10    26 1   
    22    10    42 1   
    23    11    12 2   
    24    11    13 1   
    25    13    14 1   
    26    13    43 1   
    27    14    15 1   
    28    14    17 1   
    29    14    44 1   
    30    15    16 2   
    31    15    45 1   
    32    17    18 1   
    33    17    46 1   
    34    17    47 1   
    35    18    19 1   
    36    19    20 1   
    37    19    48 1   
    38    19    49 1   
    39    20    21 ar  
    40    20    25 ar  
    41    21    22 ar  
    42    21    50 1   
    43    22    23 ar  
    44    22    51 1   
    45    23    24 ar  
    46    23    52 1   
    47    24    25 ar  
    48    24    53 1   
    49    25    54 1   
    50    26    27 1   
    51    26    55 1   
    52    26    56 1   
    53    27    28 ar  
    54    27    32 ar  
    55    28    29 ar  
    56    28    57 1   
    57    29    30 ar  
    58    29    58 1   
    59    30    31 ar  
    60    30    59 1   
    61    31    32 ar  
    62    31    60 1   
    63    32    61 1   
@<TRIPOS>SUBSTRUCTURE
     1 C4P         1 TEMP              0 ****  ****    0 ROOT
