@<TRIPOS>MOLECULE
C4Q
   50    52     1     0     0
SMALL
abcg2


@<TRIPOS>ATOM
      1 C2           3.6610     2.1230     0.3930 ca         1 C4Q       0.349900
      2 C3           2.6990     1.6840     1.3250 ca         1 C4Q      -0.173000
      3 C4           2.1340     0.4460     1.1920 ca         1 C4Q      -0.026300
      4 C5           2.0590    -1.6610    -0.1470 ca         1 C4Q      -0.078000
      5 N5           4.0740     1.4080    -0.6160 nb         1 C4Q      -0.660000
      6 C6           2.5240    -2.3980    -1.2030 ca         1 C4Q      -0.115000
      7 C7           3.5020    -1.8690    -2.0690 ca         1 C4Q      -0.101000
      8 C8           3.9990    -0.6120    -1.8610 ca         1 C4Q      -0.088000
      9 C9           3.5420     0.1700    -0.7750 ca         1 C4Q       0.261000
     10 CM           1.1050    -0.0380     2.1780 c3         1 C4Q       0.222100
     11 C1          -1.0560    -1.0820     2.4040 c3         1 C4Q       0.184300
     12 N1          -0.1920    -0.2590     1.5700 n3         1 C4Q      -0.751600
     13 C10          2.5600    -0.3620     0.1010 ca         1 C4Q      -0.065000
     14 C11         -2.1340    -1.8590     1.6510 c3         1 C4Q       0.171300
     15 N2          -3.2610    -1.0380     1.2610 n7         1 C4Q      -0.909900
     16 C12         -4.1970    -1.5990     0.3010 c3         1 C4Q       0.173800
     17 N3          -3.4570     0.0670    -1.2570 n7         1 C4Q      -0.870400
     18 C13         -4.6480    -0.5090    -0.6710 c3         1 C4Q       0.163800
     19 N4          -1.4740     2.2540    -0.9230 n7         1 C4Q      -0.909900
     20 C14         -3.6010     1.3750    -1.8560 c3         1 C4Q       0.163800
     21 C15         -2.2360     1.9940    -2.1370 c3         1 C4Q       0.173800
     22 C16         -0.6070     1.1840    -0.4350 c3         1 C4Q       0.171300
     23 C17         -0.7910     0.9750     1.0710 c3         1 C4Q       0.184300
     24 H2           4.0950     3.1110     0.5050 h4         1 C4Q       0.017100
     25 H3           2.4060     2.3410     2.1350 ha         1 C4Q       0.120000
     26 H5           1.2900    -2.0650     0.4950 ha         1 C4Q       0.128000
     27 H6           2.1350    -3.3920    -1.3800 ha         1 C4Q       0.113000
     28 H7           3.8610    -2.4640    -2.8990 ha         1 C4Q       0.115000
     29 H8           4.7500    -0.1890    -2.5160 ha         1 C4Q       0.129000
     30 H1'A        -1.5200    -0.5110     3.2250 h1         1 C4Q       0.035950
     31 H9          -1.6810    -2.2770     0.7490 h1         1 C4Q       0.041200
     32 H2'A        -2.4280    -2.7150     2.2790 h1         1 C4Q       0.041200
     33 H10         -3.6860    -2.3800    -0.2700 h1         1 C4Q       0.035450
     34 H4          -5.2950    -0.9440    -1.4400 h1         1 C4Q       0.027450
     35 H11         -4.1520     1.2920    -2.8000 h1         1 C4Q       0.027450
     36 H5'A        -4.1740     2.0690    -1.2180 h1         1 C4Q       0.027450
     37 H12         -2.4000     2.9480    -2.6420 h1         1 C4Q       0.035450
     38 H6'A        -1.6920     1.3540    -2.8470 h1         1 C4Q       0.035450
     39 H13         -0.8420     0.2440    -0.9400 h1         1 C4Q       0.041200
     40 H7'A         0.4420     1.3880    -0.6700 h1         1 C4Q       0.041200
     41 H14         -1.8620     0.9500     1.2680 h1         1 C4Q       0.035950
     42 H8'A        -0.4030     1.8500     1.6140 h1         1 C4Q       0.035950
     43 H3'A        -5.0670    -2.0710     0.7700 h1         1 C4Q       0.035450
     44 H4'A        -5.2560     0.2340    -0.1300 h1         1 C4Q       0.027450
     45 HM           1.4570    -0.9810     2.6070 h1         1 C4Q       0.037200
     46 HMA          1.0600     0.6850     3.0090 h1         1 C4Q       0.037200
     47 HN2         -3.7470    -0.6950     2.0780 hn         1 C4Q       0.416000
     48 HN3         -2.8260     0.1540    -0.4700 hn         1 C4Q       0.441000
     49 HN4         -0.9370     3.0990    -1.0360 hn         1 C4Q       0.416000
     50 H1          -0.4210    -1.8310     2.8830 h1         1 C4Q       0.035950
@<TRIPOS>BOND
     1     1     2 ar  
     2     1     5 ar  
     3     1    24 1   
     4     2     3 ar  
     5     2    25 1   
     6     3    10 1   
     7     3    13 ar  
     8     4     6 ar  
     9     4    13 ar  
    10     4    26 1   
    11     5     9 ar  
    12     6     7 ar  
    13     6    27 1   
    14     7     8 ar  
    15     7    28 1   
    16     8     9 ar  
    17     8    29 1   
    18     9    13 ar  
    19    10    12 1   
    20    10    45 1   
    21    10    46 1   
    22    11    12 1   
    23    11    14 1   
    24    11    30 1   
    25    11    50 1   
    26    12    23 1   
    27    14    15 1   
    28    14    31 1   
    29    14    32 1   
    30    15    16 1   
    31    15    47 1   
    32    16    18 1   
    33    16    33 1   
    34    16    43 1   
    35    17    18 1   
    36    17    20 1   
    37    17    48 1   
    38    18    34 1   
    39    18    44 1   
    40    19    21 1   
    41    19    22 1   
    42    19    49 1   
    43    20    21 1   
    44    20    35 1   
    45    20    36 1   
    46    21    37 1   
    47    21    38 1   
    48    22    23 1   
    49    22    39 1   
    50    22    40 1   
    51    23    41 1   
    52    23    42 1   
@<TRIPOS>SUBSTRUCTURE
     1 C4Q         1 TEMP              0 ****  ****    0 ROOT
