@<TRIPOS>MOLECULE
C4Q
   50    52     1     0     0
SMALL
No Charge or Current Charge


@<TRIPOS>ATOM
      1 C2           3.8740     2.2000     0.6940 ca         1 C4Q       0.349900
      2 C3           2.8570     1.6730     1.4990 ca         1 C4Q      -0.173000
      3 C4           2.3720     0.3760     1.2490 ca         1 C4Q      -0.026300
      4 C5           2.5320    -1.6610    -0.1440 ca         1 C4Q      -0.078000
      5 N5           4.4300     1.5160    -0.3280 nb         1 C4Q      -0.660000
      6 C6           3.1220    -2.3570    -1.2110 ca         1 C4Q      -0.115000
      7 C7           4.1360    -1.7550    -1.9670 ca         1 C4Q      -0.101000
      8 C8           4.5600    -0.4530    -1.6540 ca         1 C4Q      -0.088000
      9 C9           3.9840     0.2650    -0.5890 ca         1 C4Q       0.261000
     10 CM           1.2550    -0.1890     2.1370 c3         1 C4Q       0.222100
     11 C1          -1.0120    -1.1830     2.2450 c3         1 C4Q       0.184300
     12 N1          -0.0380    -0.3840     1.4300 n3         1 C4Q      -0.751600
     13 C10          2.9540    -0.3490     0.1770 ca         1 C4Q      -0.065000
     14 C11         -2.2570    -1.8010     1.5230 c3         1 C4Q       0.171300
     15 N2          -3.3030    -0.8150     1.1430 n7         1 C4Q      -0.909900
     16 C12         -4.5340    -1.3710     0.5080 c3         1 C4Q       0.173800
     17 N3          -4.0090     0.0550    -1.3860 n7         1 C4Q      -0.870400
     18 C13         -5.1190    -0.3520    -0.5100 c3         1 C4Q       0.163800
     19 N4          -1.7570     2.0280    -1.0490 n7         1 C4Q      -0.909900
     20 C14         -4.0520     1.4130    -1.9540 c3         1 C4Q       0.163800
     21 C15         -2.6090     1.9240    -2.2710 c3         1 C4Q       0.173800
     22 C16         -0.9980     0.8120    -0.6300 c3         1 C4Q       0.171300
     23 C17         -0.5960     0.8850     0.8710 c3         1 C4Q       0.184300
     24 H2           4.2590     3.2040     0.8730 h4         1 C4Q       0.017100
     25 H3           2.4500     2.2750     2.3060 ha         1 C4Q       0.120000
     26 H5           1.7460    -2.1530     0.4220 ha         1 C4Q       0.128000
     27 H6           2.7900    -3.3650    -1.4510 ha         1 C4Q       0.113000
     28 H7           4.5940    -2.2940    -2.7940 ha         1 C4Q       0.115000
     29 H8           5.3480     0.0080    -2.2450 ha         1 C4Q       0.129000
     30 H1'A        -1.3660    -0.5820     3.0930 h1         1 C4Q       0.035950
     31 H9          -1.9070    -2.3460     0.6350 h1         1 C4Q       0.041200
     32 H2'A        -2.6930    -2.5450     2.2030 h1         1 C4Q       0.041200
     33 H10         -4.2910    -2.2890    -0.0460 h1         1 C4Q       0.035450
     34 H4          -5.9450    -0.7980    -1.0800 h1         1 C4Q       0.027450
     35 H11         -4.6610     1.4300    -2.8680 h1         1 C4Q       0.027450
     36 H5'A        -4.5050     2.1140    -1.2390 h1         1 C4Q       0.027450
     37 H12         -2.7140     2.9200    -2.7230 h1         1 C4Q       0.035450
     38 H6'A        -2.1380     1.2780    -3.0260 h1         1 C4Q       0.035450
     39 H13         -1.5770    -0.1040    -0.7810 h1         1 C4Q       0.041200
     40 H7'A        -0.0880     0.7010    -1.2360 h1         1 C4Q       0.041200
     41 H14         -1.4740     1.1930     1.4550 h1         1 C4Q       0.035950
     42 H8'A         0.1240     1.7070     0.9700 h1         1 C4Q       0.035950
     43 H3'A        -5.2890    -1.6300     1.2620 h1         1 C4Q       0.035450
     44 H4'A        -5.5080     0.5080     0.0520 h1         1 C4Q       0.027450
     45 HM           1.6080    -1.1460     2.5440 h1         1 C4Q       0.037200
     46 HMA          1.1070     0.4770     2.9980 h1         1 C4Q       0.037200
     47 HN2         -3.5770    -0.2720     1.9710 hn         1 C4Q       0.416000
     48 HN3         -3.2270     0.0850    -0.7090 hn         1 C4Q       0.441000
     49 HN4         -1.0720     2.7800    -1.1950 hn         1 C4Q       0.416000
     50 H1          -0.4740    -2.0350     2.6820 h1         1 C4Q       0.035950
@<TRIPOS>BOND
     1     1     2 ar  
     2     1     5 ar  
     3     1    24 1   
     4     2     3 ar  
     5     2    25 1   
     6     3    10 1   
     7     3    13 ar  
     8     4     6 ar  
     9     4    13 ar  
    10     4    26 1   
    11     5     9 ar  
    12     6     7 ar  
    13     6    27 1   
    14     7     8 ar  
    15     7    28 1   
    16     8     9 ar  
    17     8    29 1   
    18     9    13 ar  
    19    10    12 1   
    20    10    45 1   
    21    10    46 1   
    22    11    12 1   
    23    11    14 1   
    24    11    30 1   
    25    11    50 1   
    26    12    23 1   
    27    14    15 1   
    28    14    31 1   
    29    14    32 1   
    30    15    16 1   
    31    15    47 1   
    32    16    18 1   
    33    16    33 1   
    34    16    43 1   
    35    17    18 1   
    36    17    20 1   
    37    17    48 1   
    38    18    34 1   
    39    18    44 1   
    40    19    21 1   
    41    19    22 1   
    42    19    49 1   
    43    20    21 1   
    44    20    35 1   
    45    20    36 1   
    46    21    37 1   
    47    21    38 1   
    48    22    23 1   
    49    22    39 1   
    50    22    40 1   
    51    23    41 1   
    52    23    42 1   
@<TRIPOS>SUBSTRUCTURE
     1 C4Q         1 TEMP              0 ****  ****    0 ROOT
