@<TRIPOS>MOLECULE
C4T
   49    52     1     0     0
SMALL
No Charge or Current Charge


@<TRIPOS>ATOM
      1 C1           1.1000     2.4160    -0.3920 ca         1 C4T      -0.287600
      2 C2           1.9250     3.5630    -0.5260 ca         1 C4T       0.233100
      3 C3           3.2200     3.5940     0.0270 ca         1 C4T      -0.211000
      4 O5           1.4700     4.6550    -1.1940 oh         1 C4T      -0.543100
      5 C9           2.8570     1.3830     0.9050 ca         1 C4T      -0.282900
      6 C10          3.6510     2.4670     0.7300 ca         1 C4T       0.027800
      7 C13          3.6250     0.4520     1.6980 cc         1 C4T       0.380900
      8 C14          3.1570    -0.8980     2.1870 c3         1 C4T      -0.043400
      9 C15          2.4360    -1.7400     1.1350 ca         1 C4T      -0.082300
     10 C16          1.1480    -2.2540     1.3920 ca         1 C4T      -0.106000
     11 C19          0.4850    -3.0250     0.4220 ca         1 C4T      -0.112000
     12 C20          3.0520    -2.0100    -0.1030 ca         1 C4T      -0.106000
     13 C21          0.0040     0.0740    -1.9430 c3         1 C4T       0.088300
     14 C22         -2.2890     1.0300    -1.6020 c3         1 C4T       0.140300
     15 C24         -2.8010    -0.7760     0.1090 ca         1 C4T      -0.089000
     16 C27         -3.2830    -2.0500     0.4570 ca         1 C4T      -0.106000
     17 C4           1.5650     1.3150     0.3720 ca         1 C4T       0.047000
     18 C6          -0.2700     2.3850    -1.0160 c          1 C4T       0.635700
     19 N7          -0.8380     1.1370    -1.3400 n          1 C4T      -0.404800
     20 O8          -0.8910     3.4300    -1.1790 o          1 C4T      -0.639100
     21 N11          4.8370     2.2090     1.3780 na         1 C4T      -0.067400
     22 N12          4.8390     0.9480     1.9940 nd         1 C4T      -0.521100
     23 C17          1.1050    -3.2900    -0.8110 ca         1 C4T      -0.114000
     24 C18          2.3880    -2.7810    -1.0730 ca         1 C4T      -0.112000
     25 C23         -2.8500    -0.3380    -1.2290 ca         1 C4T      -0.105300
     26 C25         -3.8140    -2.8920    -0.5330 ca         1 C4T       0.119000
     27 C26         -3.8670    -2.4620    -1.8690 ca         1 C4T      -0.106000
     28 C28         -3.3850    -1.1880    -2.2180 ca         1 C4T      -0.089000
     29 Cl          -4.4090    -4.4890    -0.1000 cl         1 C4T      -0.202000
     30 H1           3.8560     4.4680    -0.0860 ha         1 C4T       0.139000
     31 H2           0.5020     4.4930    -1.3350 ho         1 C4T       0.510000
     32 H3           4.0180    -1.4620     2.5640 hc         1 C4T       0.068700
     33 H4           2.5080    -0.7370     3.0550 hc         1 C4T       0.068700
     34 H5           0.6570    -2.0550     2.3420 ha         1 C4T       0.115500
     35 H6          -0.5100    -3.4160     0.6250 ha         1 C4T       0.116000
     36 H7           4.0460    -1.6210    -0.3150 ha         1 C4T       0.115500
     37 H8           0.1010    -0.7600    -1.2400 h1         1 C4T       0.047033
     38 H9          -0.4610    -0.2970    -2.8660 h1         1 C4T       0.047033
     39 H10          1.0020     0.4570    -2.1930 h1         1 C4T       0.047033
     40 H11         -2.8240     1.7910    -1.0180 h1         1 C4T       0.069700
     41 H12         -2.4740     1.2390    -2.6640 h1         1 C4T       0.069700
     42 H14         -3.2410    -2.3860     1.4890 ha         1 C4T       0.131000
     43 H15          0.9380     0.4470     0.5580 ha         1 C4T       0.130000
     44 H16          5.6400     2.8330     1.4310 hn         1 C4T       0.379000
     45 H17          0.5910    -3.8860    -1.5620 ha         1 C4T       0.113000
     46 H18          2.8680    -2.9840    -2.0270 ha         1 C4T       0.116000
     47 H19         -4.2770    -3.1170    -2.6340 ha         1 C4T       0.131000
     48 H20         -3.4220    -0.8660    -3.2570 ha         1 C4T       0.121000
     49 H13         -2.3810    -0.1310     0.8790 ha         1 C4T       0.121000
@<TRIPOS>BOND
     1     1     2 ar  
     2     1    17 ar  
     3     1    18 1   
     4     2     3 ar  
     5     2     4 1   
     6     3     6 ar  
     7     3    30 1   
     8     4    31 1   
     9     5     6 ar  
    10     5     7 1   
    11     5    17 ar  
    12     6    21 1   
    13     7     8 1   
    14     7    22 2   
    15     8     9 1   
    16     8    32 1   
    17     8    33 1   
    18     9    10 ar  
    19     9    12 ar  
    20    10    11 ar  
    21    10    34 1   
    22    11    23 ar  
    23    11    35 1   
    24    12    24 ar  
    25    12    36 1   
    26    13    19 1   
    27    13    37 1   
    28    13    38 1   
    29    13    39 1   
    30    14    19 1   
    31    14    25 1   
    32    14    40 1   
    33    14    41 1   
    34    15    16 ar  
    35    15    25 ar  
    36    15    49 1   
    37    16    26 ar  
    38    16    42 1   
    39    17    43 1   
    40    18    19 1   
    41    18    20 2   
    42    21    22 1   
    43    21    44 1   
    44    23    24 ar  
    45    23    45 1   
    46    24    46 1   
    47    25    28 ar  
    48    26    27 ar  
    49    26    29 1   
    50    27    28 ar  
    51    27    47 1   
    52    28    48 1   
@<TRIPOS>SUBSTRUCTURE
     1 C4T         1 TEMP              0 ****  ****    0 ROOT
