@<TRIPOS>MOLECULE
C4T
   49    52     1     0     0
SMALL
bcc


@<TRIPOS>ATOM
      1 C1           0.9730     2.3440    -0.3930 ca         1 C4T      -0.287600
      2 C2           1.7730     3.5280    -0.3970 ca         1 C4T       0.233100
      3 C3           3.0250     3.5450     0.1870 ca         1 C4T      -0.229000
      4 O5           1.3330     4.6480    -0.9850 oh         1 C4T      -0.504100
      5 C9           2.6320     1.2350     0.9290 ca         1 C4T      -0.282900
      6 C10          3.4430     2.3800     0.8350 ca         1 C4T       0.027800
      7 C13          3.3980     0.3030     1.6910 cc         1 C4T       0.380900
      8 C14          2.9920    -1.0680     2.1240 c3         1 C4T      -0.043400
      9 C15          2.3510    -1.8680     1.0160 ca         1 C4T      -0.082300
     10 C16          1.0450    -2.3350     1.1380 ca         1 C4T      -0.124000
     11 C19          0.4490    -3.0610     0.1140 ca         1 C4T      -0.130000
     12 C20          3.0490    -2.1400    -0.1580 ca         1 C4T      -0.124000
     13 C21          0.0520     0.1780    -2.1230 c3         1 C4T       0.088300
     14 C22         -2.2240     1.0520    -1.8850 c3         1 C4T       0.140300
     15 C24         -2.6120    -0.4010     0.1270 ca         1 C4T      -0.107000
     16 C27         -2.9780    -1.5950     0.7260 ca         1 C4T      -0.124000
     17 C4           1.3930     1.2260     0.3010 ca         1 C4T       0.029000
     18 C6          -0.3630     2.3680    -1.0340 c          1 C4T       0.702700
     19 N7          -0.8070     1.2360    -1.6150 n          1 C4T      -0.471800
     20 O8          -1.0400     3.4020    -0.9950 o          1 C4T      -0.639100
     21 N11          4.5750     2.0730     1.5000 na         1 C4T      -0.017100
     22 N12          4.5510     0.8280     2.0100 nd         1 C4T      -0.521100
     23 C17          1.1550    -3.3300    -1.0490 ca         1 C4T      -0.132000
     24 C18          2.4580    -2.8660    -1.1820 ca         1 C4T      -0.130000
     25 C23         -2.6940    -0.2350    -1.2540 ca         1 C4T      -0.105300
     26 C25         -3.4340    -2.6350    -0.0710 ca         1 C4T       0.027400
     27 C26         -3.5330    -2.4950    -1.4450 ca         1 C4T      -0.124000
     28 C28         -3.1590    -1.2900    -2.0270 ca         1 C4T      -0.107000
     29 CL          -3.8620    -4.1450     0.6670 cl         1 C4T      -0.110400
     30 H1           3.6330     4.4390     0.1630 ha         1 C4T       0.157000
     31 H2           0.3700     4.5590    -1.1250 ho         1 C4T       0.471000
     32 H3           3.8710    -1.5900     2.5110 hc         1 C4T       0.068700
     33 H4           2.2880    -0.9860     2.9570 hc         1 C4T       0.068700
     34 H5           0.4850    -2.1210     2.0420 ha         1 C4T       0.133500
     35 H6          -0.5700    -3.4080     0.2260 ha         1 C4T       0.134000
     36 H7           4.0650    -1.7790    -0.2770 ha         1 C4T       0.133500
     37 H8           0.0630    -0.7030    -1.4820 h1         1 C4T       0.047033
     38 H9          -0.3220    -0.1260    -3.1020 h1         1 C4T       0.047033
     39 H10          1.0700     0.5310    -2.2520 h1         1 C4T       0.047033
     40 H11         -2.7750     1.9000    -1.4830 h1         1 C4T       0.069700
     41 H12         -2.4010     1.0310    -2.9640 h1         1 C4T       0.069700
     42 H14         -2.9050    -1.7140     1.7980 ha         1 C4T       0.149000
     43 H15          0.7580     0.3520     0.3620 ha         1 C4T       0.148000
     44 H16          5.3850     2.6530     1.6450 hn         1 C4T       0.328700
     45 H17          0.6910    -3.8900    -1.8500 ha         1 C4T       0.131000
     46 H18          3.0160    -3.0680    -2.0880 ha         1 C4T       0.134000
     47 H19         -3.8870    -3.3120    -2.0580 ha         1 C4T       0.149000
     48 H20         -3.2230    -1.1840    -3.1030 ha         1 C4T       0.139000
     49 H13         -2.2510     0.4080     0.7510 ha         1 C4T       0.139000
@<TRIPOS>BOND
     1     1     2 ar  
     2     1    17 ar  
     3     1    18 1   
     4     2     3 ar  
     5     2     4 1   
     6     3     6 ar  
     7     3    30 1   
     8     4    31 1   
     9     5     6 ar  
    10     5     7 1   
    11     5    17 ar  
    12     6    21 1   
    13     7     8 1   
    14     7    22 2   
    15     8     9 1   
    16     8    32 1   
    17     8    33 1   
    18     9    10 ar  
    19     9    12 ar  
    20    10    11 ar  
    21    10    34 1   
    22    11    23 ar  
    23    11    35 1   
    24    12    24 ar  
    25    12    36 1   
    26    13    19 1   
    27    13    37 1   
    28    13    38 1   
    29    13    39 1   
    30    14    19 1   
    31    14    25 1   
    32    14    40 1   
    33    14    41 1   
    34    15    16 ar  
    35    15    25 ar  
    36    15    49 1   
    37    16    26 ar  
    38    16    42 1   
    39    17    43 1   
    40    18    19 1   
    41    18    20 2   
    42    21    22 1   
    43    21    44 1   
    44    23    24 ar  
    45    23    45 1   
    46    24    46 1   
    47    25    28 ar  
    48    26    27 ar  
    49    26    29 1   
    50    27    28 ar  
    51    27    47 1   
    52    28    48 1   
@<TRIPOS>SUBSTRUCTURE
     1 C4T         1 TEMP              0 ****  ****    0 ROOT
