@<TRIPOS>MOLECULE
C4U
   15    15     1     0     0
SMALL
abcg2


@<TRIPOS>ATOM
      1 CAE        -40.2710    25.0000    -7.2510 c3         1 C4U      -0.048800
      2 CAB        -41.2540    25.0040    -8.3830 ca         1 C4U      -0.065300
      3 CAC        -40.9480    25.6520    -9.5780 ca         1 C4U      -0.106000
      4 CAF        -41.8750    25.6780   -10.6070 ca         1 C4U       0.124000
      5 CL         -41.4730    26.4960   -12.0850 cl         1 C4U      -0.209000
      6 CAH        -43.1120    25.0660   -10.4880 ca         1 C4U      -0.108000
      7 CAG        -43.4130    24.4170    -9.2990 ca         1 C4U      -0.099000
      8 CAD        -42.4950    24.3840    -8.2590 ca         1 C4U      -0.111000
      9 H1         -40.4120    25.8740    -6.6120 hc         1 C4U       0.045367
     10 H2         -40.3890    24.1180    -6.6220 hc         1 C4U       0.045367
     11 H3         -39.2430    25.0260    -7.6120 hc         1 C4U       0.045367
     12 H4         -39.9860    26.1340    -9.7010 ha         1 C4U       0.127000
     13 H5         -43.8240    25.0920   -11.3020 ha         1 C4U       0.129000
     14 H6         -44.3730    23.9300    -9.1890 ha         1 C4U       0.117000
     15 H7         -42.7460    23.8700    -7.3390 ha         1 C4U       0.115000
@<TRIPOS>BOND
     1     1     2 1   
     2     1     9 1   
     3     1    10 1   
     4     1    11 1   
     5     2     3 ar  
     6     2     8 ar  
     7     3     4 ar  
     8     3    12 1   
     9     4     5 1   
    10     4     6 ar  
    11     6     7 ar  
    12     6    13 1   
    13     7     8 ar  
    14     7    14 1   
    15     8    15 1   
@<TRIPOS>SUBSTRUCTURE
     1 C4U         1 TEMP              0 ****  ****    0 ROOT
