@<TRIPOS>MOLECULE
C4U
   15    15     1     0     0
SMALL
No Charge or Current Charge


@<TRIPOS>ATOM
      1 CAE        -40.2570    24.9950    -7.2320 c3         1 C4U      -0.048800
      2 CAB        -41.2570    25.0150    -8.3780 ca         1 C4U      -0.065300
      3 CAC        -40.9420    25.6710    -9.5840 ca         1 C4U      -0.106000
      4 CAF        -41.8680    25.6910   -10.6400 ca         1 C4U       0.124000
      5 Cl         -41.4660    26.5110   -12.1430 cl         1 C4U      -0.209000
      6 CAH        -43.1140    25.0590   -10.4990 ca         1 C4U      -0.108000
      7 CAG        -43.4360    24.4050    -9.2970 ca         1 C4U      -0.099000
      8 CAD        -42.5090    24.3850    -8.2390 ca         1 C4U      -0.111000
      9 H1         -40.3990    25.8610    -6.5750 hc         1 C4U       0.045367
     10 H2         -40.3650    24.0910    -6.6220 hc         1 C4U       0.045367
     11 H3         -39.2250    25.0200    -7.6010 hc         1 C4U       0.045367
     12 H4         -39.9810    26.1650    -9.7040 ha         1 C4U       0.127000
     13 H5         -43.8290    25.0770   -11.3190 ha         1 C4U       0.129000
     14 H6         -44.4010    23.9160    -9.1840 ha         1 C4U       0.117000
     15 H7         -42.7650    23.8790    -7.3110 ha         1 C4U       0.115000
@<TRIPOS>BOND
     1     1     2 1   
     2     1     9 1   
     3     1    10 1   
     4     1    11 1   
     5     2     3 ar  
     6     2     8 ar  
     7     3     4 ar  
     8     3    12 1   
     9     4     5 1   
    10     4     6 ar  
    11     6     7 ar  
    12     6    13 1   
    13     7     8 ar  
    14     7    14 1   
    15     8    15 1   
@<TRIPOS>SUBSTRUCTURE
     1 C4U         1 TEMP              0 ****  ****    0 ROOT
