@<TRIPOS>MOLECULE
C4V
   66    68     1     0     0
SMALL
No Charge or Current Charge


@<TRIPOS>ATOM
      1 C13         -1.4590     3.7020    -3.2060 c3         1 C4V      -0.084850
      2 C18         -2.9220    -4.6710     0.7150 cx         1 C4V      -0.196700
      3 C17         -0.0450     2.9280     2.5830 c3         1 C4V      -0.084850
      4 C16         -2.1490     3.8820     3.6530 c3         1 C4V      -0.084850
      5 C15         -1.5880     2.8480     2.6500 c3         1 C4V      -0.063700
      6 C19         -2.8250    -4.3510    -0.7690 c          1 C4V       0.733000
      7 C22         -4.1510    -4.2540     1.5000 cx         1 C4V      -0.129400
      8 C23          1.4190    -0.4820     0.0150 c          1 C4V       0.662100
      9 C11         -2.2540     3.0130     1.2560 c3         1 C4V       0.181800
     10 C12         -1.1490     3.4130    -1.7200 c3         1 C4V      -0.063700
     11 C27          4.4950    -0.8950    -0.5130 ca         1 C4V      -0.138000
     12 C1          -2.6080    -2.1120     1.3440 ca         1 C4V       0.048700
     13 C2          -3.6400    -1.1630     1.4500 ca         1 C4V      -0.116000
     14 C3          -3.4110     0.1740     1.0890 ca         1 C4V      -0.113000
     15 C4          -2.1460     0.5890     0.6310 ca         1 C4V       0.138000
     16 C5          -1.0960    -0.3570     0.5380 ca         1 C4V       0.000000
     17 C6          -1.3390    -1.7030     0.8960 ca         1 C4V      -0.111000
     18 C7          -2.8350    -3.5480     1.7360 cx         1 C4V      -0.110400
     19 N8           0.1700     0.1080     0.0900 ns         1 C4V      -0.161000
     20 N9          -1.9440     1.9460     0.2670 nh         1 C4V      -0.781400
     21 C10         -2.0900     2.3020    -1.1680 c3         1 C4V       0.181800
     22 C14          0.3510     3.0900    -1.5280 c3         1 C4V      -0.084850
     23 O20         -1.7090    -4.2160    -1.2460 o          1 C4V      -0.728500
     24 O21         -3.8490    -4.3630    -1.4380 o          1 C4V      -0.728500
     25 O24          1.6630    -1.6320     0.3580 o          1 C4V      -0.593100
     26 N25          2.3600     0.4040    -0.4890 ns         1 C4V      -0.178000
     27 C26          3.7520     0.2820    -0.7500 ca         1 C4V       0.001000
     28 C28          5.8720    -0.9360    -0.7980 ca         1 C4V      -0.089000
     29 C29          6.5250     0.1930    -1.3250 ca         1 C4V      -0.111300
     30 C30          5.7880     1.3670    -1.5600 ca         1 C4V      -0.089000
     31 C31          4.4130     1.4080    -1.2750 ca         1 C4V      -0.138000
     32 C32          8.0150     0.1460    -1.6290 c3         1 C4V      -0.036800
     33 H44         -2.5110     3.9870    -3.3330 hc         1 C4V       0.029867
     34 H43         -0.8390     4.5250    -3.5800 hc         1 C4V       0.029867
     35 H45         -1.2660     2.8170    -3.8250 hc         1 C4V       0.029867
     36 H56         -2.4680    -5.6160     0.9980 hc         1 C4V       0.057700
     37 H55          0.2780     3.8930     2.1730 hc         1 C4V       0.029867
     38 H53          0.3930     2.8150     3.5820 hc         1 C4V       0.029867
     39 H54          0.3630     2.1340     1.9500 hc         1 C4V       0.029867
     40 H50         -1.9190     4.9040     3.3280 hc         1 C4V       0.029867
     41 H52         -3.2380     3.7850     3.7400 hc         1 C4V       0.029867
     42 H51         -1.7150     3.7310     4.6490 hc         1 C4V       0.029867
     43 H49         -1.8530     1.8570     3.0370 hc         1 C4V       0.052200
     44 H58         -4.9370    -3.7190     0.9710 hc         1 C4V       0.057700
     45 H59         -4.5080    -4.9280     2.2750 hc         1 C4V       0.057700
     46 H40         -3.3430     3.0580     1.3920 h1         1 C4V       0.035950
     47 H41         -1.9560     3.9930     0.8650 h1         1 C4V       0.035950
     48 H42         -1.3560     4.3410    -1.1760 hc         1 C4V       0.052200
     49 H61          4.0300    -1.7870    -0.1080 ha         1 C4V       0.123500
     50 H33         -4.6210    -1.4580     1.8100 ha         1 C4V       0.111000
     51 H34         -4.2240     0.8900     1.1630 ha         1 C4V       0.094000
     52 H35         -0.5590    -2.4530     0.8250 ha         1 C4V       0.158000
     53 H36         -2.3270    -3.7870     2.6670 hc         1 C4V       0.053700
     54 H37          0.1410     1.0750    -0.2050 hn         1 C4V       0.169000
     55 H39         -3.1290     2.6130    -1.3460 h1         1 C4V       0.035950
     56 H38         -1.9270     1.4000    -1.7750 h1         1 C4V       0.035950
     57 H48          0.9750     3.9000    -1.9240 hc         1 C4V       0.029867
     58 H47          0.5930     2.9760    -0.4650 hc         1 C4V       0.029867
     59 H46          0.6190     2.1660    -2.0530 hc         1 C4V       0.029867
     60 H60          1.9880     1.3170    -0.7150 hn         1 C4V       0.141000
     61 H62          6.4310    -1.8490    -0.6080 ha         1 C4V       0.104500
     62 H63          6.2800     2.2490    -1.9630 ha         1 C4V       0.104500
     63 H64          3.8580     2.3250    -1.4640 ha         1 C4V       0.123500
     64 H67          8.3340    -0.8650    -1.9100 hc         1 C4V       0.034367
     65 H66          8.2750     0.8150    -2.4580 hc         1 C4V       0.034367
     66 H65          8.6010     0.4520    -0.7550 hc         1 C4V       0.034367
@<TRIPOS>BOND
     1     1    10 1   
     2     1    33 1   
     3     1    34 1   
     4     1    35 1   
     5     2     6 1   
     6     2     7 1   
     7     2    18 1   
     8     2    36 1   
     9     3     5 1   
    10     3    37 1   
    11     3    38 1   
    12     3    39 1   
    13     4     5 1   
    14     4    40 1   
    15     4    41 1   
    16     4    42 1   
    17     5     9 1   
    18     5    43 1   
    19     6    23 1   
    20     6    24 1   
    21     7    18 1   
    22     7    44 1   
    23     7    45 1   
    24     8    19 1   
    25     8    25 2   
    26     8    26 1   
    27     9    20 1   
    28     9    46 1   
    29     9    47 1   
    30    10    21 1   
    31    10    22 1   
    32    10    48 1   
    33    11    27 ar  
    34    11    28 ar  
    35    11    49 1   
    36    12    13 ar  
    37    12    17 ar  
    38    12    18 1   
    39    13    14 ar  
    40    13    50 1   
    41    14    15 ar  
    42    14    51 1   
    43    15    16 ar  
    44    15    20 1   
    45    16    17 ar  
    46    16    19 1   
    47    17    52 1   
    48    18    53 1   
    49    19    54 1   
    50    20    21 1   
    51    21    55 1   
    52    21    56 1   
    53    22    57 1   
    54    22    58 1   
    55    22    59 1   
    56    26    27 1   
    57    26    60 1   
    58    27    31 ar  
    59    28    29 ar  
    60    28    61 1   
    61    29    30 ar  
    62    29    32 1   
    63    30    31 ar  
    64    30    62 1   
    65    31    63 1   
    66    32    64 1   
    67    32    65 1   
    68    32    66 1   
@<TRIPOS>SUBSTRUCTURE
     1 C4V         1 TEMP              0 ****  ****    0 ROOT
