@<TRIPOS>MOLECULE
C4V
   66    68     1     0     0
SMALL
bcc


@<TRIPOS>ATOM
      1 C13         -1.7820     3.7500    -3.0700 c3         1 C4V      -0.084850
      2 C18         -2.5780    -4.5850     0.5420 cx         1 C4V      -0.196700
      3 C17         -0.2880     2.9020     2.8390 c3         1 C4V      -0.084850
      4 C16         -2.4830     3.8610     3.5920 c3         1 C4V      -0.084850
      5 C15         -1.8050     2.8090     2.7180 c3         1 C4V      -0.063700
      6 C19         -2.4930    -4.2150    -0.9260 c          1 C4V       0.943600
      7 C22         -3.8030    -4.2530     1.3420 cx         1 C4V      -0.129400
      8 C23          1.5020    -0.2840    -0.0380 c          1 C4V       0.796100
      9 C11         -2.2750     2.9880     1.2770 c3         1 C4V       0.181800
     10 C12         -1.3980     3.5890    -1.6030 c3         1 C4V      -0.063700
     11 C27          4.5370    -0.6460    -0.0050 ca         1 C4V      -0.156000
     12 C1          -2.3910    -2.0560     1.2220 ca         1 C4V       0.048700
     13 C2          -3.4360    -1.1500     1.3410 ca         1 C4V      -0.134000
     14 C3          -3.2310     0.1920     1.0530 ca         1 C4V      -0.131000
     15 C4          -1.9870     0.6570     0.6580 ca         1 C4V      -0.000400
     16 C5          -0.9190    -0.2560     0.5490 ca         1 C4V       0.092600
     17 C6          -1.1340    -1.6010     0.8290 ca         1 C4V      -0.129000
     18 C7          -2.5490    -3.4900     1.5870 cx         1 C4V      -0.110400
     19 N8           0.2930     0.3100     0.1630 ns         1 C4V      -0.487100
     20 N9          -1.7230     2.0200     0.3390 nh         1 C4V      -0.643000
     21 C10         -2.0540     2.3220    -1.0550 c3         1 C4V       0.181800
     22 C14          0.1160     3.5580    -1.4360 c3         1 C4V      -0.084850
     23 O20         -1.5930    -4.7880    -1.5790 o          1 C4V      -0.833800
     24 O21         -3.3040    -3.3760    -1.3590 o          1 C4V      -0.833800
     25 O24          1.7180    -1.4750     0.0990 o          1 C4V      -0.593100
     26 N25          2.4710     0.6170    -0.4090 ns         1 C4V      -0.504100
     27 C26          3.7980     0.2950    -0.7230 ca         1 C4V       0.093600
     28 C28          5.8570    -0.8910    -0.3450 ca         1 C4V      -0.107000
     29 C29          6.4930    -0.2090    -1.3810 ca         1 C4V      -0.111300
     30 C30          5.7490     0.7410    -2.0740 ca         1 C4V      -0.107000
     31 C31          4.4210     0.9860    -1.7590 ca         1 C4V      -0.156000
     32 C32          7.9270    -0.4910    -1.7220 c3         1 C4V      -0.036800
     33 H44         -2.8650     3.7890    -3.1980 hc         1 C4V       0.029867
     34 H43         -1.3670     4.6700    -3.4840 hc         1 C4V       0.029867
     35 H45         -1.4060     2.9160    -3.6680 hc         1 C4V       0.029867
     36 H56         -2.0490    -5.4890     0.8240 hc         1 C4V       0.057700
     37 H55          0.0790     3.8460     2.4290 hc         1 C4V       0.029867
     38 H53          0.0220     2.8520     3.8850 hc         1 C4V       0.029867
     39 H54          0.2190     2.0930     2.3130 hc         1 C4V       0.029867
     40 H50         -2.1830     4.8690     3.2990 hc         1 C4V       0.029867
     41 H52         -3.5700     3.8030     3.5190 hc         1 C4V       0.029867
     42 H51         -2.2150     3.7290     4.6410 hc         1 C4V       0.029867
     43 H49         -2.1210     1.8250     3.0780 hc         1 C4V       0.052200
     44 H58         -4.6040    -3.7530     0.8130 hc         1 C4V       0.057700
     45 H59         -4.1310    -4.9530     2.1000 hc         1 C4V       0.057700
     46 H40         -3.3770     2.9900     1.2450 h1         1 C4V       0.035950
     47 H41         -1.9640     3.9820     0.9460 h1         1 C4V       0.035950
     48 H42         -1.7860     4.4600    -1.0640 hc         1 C4V       0.052200
     49 H61          4.0960    -1.1790     0.8230 ha         1 C4V       0.141500
     50 H33         -4.4140    -1.4890     1.6550 ha         1 C4V       0.129000
     51 H34         -4.0540     0.8900     1.1450 ha         1 C4V       0.112000
     52 H35         -0.3260    -2.3110     0.7490 ha         1 C4V       0.176000
     53 H36         -2.0080    -3.7630     2.4890 hc         1 C4V       0.053700
     54 H37          0.2090     1.3200     0.0980 hn         1 C4V       0.335500
     55 H39         -3.1460     2.3900    -1.1870 h1         1 C4V       0.035950
     56 H38         -1.7200     1.4770    -1.6660 h1         1 C4V       0.035950
     57 H48          0.5780     4.4520    -1.8590 hc         1 C4V       0.029867
     58 H47          0.4100     3.5110    -0.3850 hc         1 C4V       0.029867
     59 H46          0.5400     2.6960    -1.9600 hc         1 C4V       0.029867
     60 H60          2.1710     1.5300    -0.7130 hn         1 C4V       0.307500
     61 H62          6.4110    -1.6290     0.2240 ha         1 C4V       0.122500
     62 H63          6.2060     1.2970    -2.8840 ha         1 C4V       0.122500
     63 H64          3.8630     1.7210    -2.3280 ha         1 C4V       0.141500
     64 H67          8.0710    -1.5360    -2.0000 hc         1 C4V       0.034367
     65 H66          8.2680     0.1230    -2.5550 hc         1 C4V       0.034367
     66 H65          8.5840    -0.2930    -0.8740 hc         1 C4V       0.034367
@<TRIPOS>BOND
     1     1    10 1   
     2     1    33 1   
     3     1    34 1   
     4     1    35 1   
     5     2     6 1   
     6     2     7 1   
     7     2    18 1   
     8     2    36 1   
     9     3     5 1   
    10     3    37 1   
    11     3    38 1   
    12     3    39 1   
    13     4     5 1   
    14     4    40 1   
    15     4    41 1   
    16     4    42 1   
    17     5     9 1   
    18     5    43 1   
    19     6    23 1   
    20     6    24 1   
    21     7    18 1   
    22     7    44 1   
    23     7    45 1   
    24     8    19 1   
    25     8    25 2   
    26     8    26 1   
    27     9    20 1   
    28     9    46 1   
    29     9    47 1   
    30    10    21 1   
    31    10    22 1   
    32    10    48 1   
    33    11    27 ar  
    34    11    28 ar  
    35    11    49 1   
    36    12    13 ar  
    37    12    17 ar  
    38    12    18 1   
    39    13    14 ar  
    40    13    50 1   
    41    14    15 ar  
    42    14    51 1   
    43    15    16 ar  
    44    15    20 1   
    45    16    17 ar  
    46    16    19 1   
    47    17    52 1   
    48    18    53 1   
    49    19    54 1   
    50    20    21 1   
    51    21    55 1   
    52    21    56 1   
    53    22    57 1   
    54    22    58 1   
    55    22    59 1   
    56    26    27 1   
    57    26    60 1   
    58    27    31 ar  
    59    28    29 ar  
    60    28    61 1   
    61    29    30 ar  
    62    29    32 1   
    63    30    31 ar  
    64    30    62 1   
    65    31    63 1   
    66    32    64 1   
    67    32    65 1   
    68    32    66 1   
@<TRIPOS>SUBSTRUCTURE
     1 C4V         1 TEMP              0 ****  ****    0 ROOT
