@<TRIPOS>MOLECULE
C4W
   31    31     1     0     0
SMALL
No Charge or Current Charge


@<TRIPOS>ATOM
      1 C2           0.5030     0.5710    -0.2050 c6         1 C4W       0.060700
      2 C3          -0.5680     1.5230     0.4070 c6         1 C4W       0.161300
      3 C4          -1.9960     1.1720    -0.1030 c6         1 C4W       0.098300
      4 C5          -2.2790    -0.3310     0.2000 c6         1 C4W       0.144300
      5 C6          -3.6600    -0.8180    -0.3510 c3         1 C4W       0.172600
      6 C8           4.2820     1.2050     0.3840 c3         1 C4W      -0.182100
      7 N2           1.8580     0.9170     0.3080 ns         1 C4W      -0.516900
      8 O3          -0.2810     2.8970     0.1090 oh         1 C4W      -0.642000
      9 O4          -2.9630     2.0500     0.5190 oh         1 C4W      -0.723000
     10 O5          -1.2430    -1.1430    -0.4040 os         1 C4W      -0.404000
     11 O6          -3.8930    -2.2230    -0.1340 oh         1 C4W      -0.702000
     12 C1           0.0840    -0.9090     0.1060 c6         1 C4W       0.394500
     13 O7           3.0800     0.4160    -1.5510 o          1 C4W      -0.577100
     14 N1           1.0460    -1.8850    -0.4180 n2         1 C4W      -0.399200
     15 N3           1.8570    -2.3570     0.3930 n1         1 C4W       0.239000
     16 N4           2.6850    -2.6770     1.1050 n1         1 C4W      -0.072000
     17 H2           0.4980     0.6970    -1.2980 h1         1 C4W       0.124700
     18 H3          -0.5580     1.3830     1.4990 h1         1 C4W       0.036700
     19 H4          -2.0110     1.3090    -1.1960 h1         1 C4W       0.064700
     20 H5          -2.2690    -0.4940     1.2880 h1         1 C4W       0.061700
     21 H61         -4.4530    -0.2330     0.1360 h1         1 C4W       0.027700
     22 H62         -3.7000    -0.5920    -1.4250 h1         1 C4W       0.027700
     23 H81          4.3310     0.6150     1.3060 hc         1 C4W       0.063033
     24 H82          5.1980     1.1080    -0.2080 hc         1 C4W       0.063033
     25 H83          4.1510     2.2240     0.7650 hc         1 C4W       0.063033
     26 HN2          1.9330     1.2870     1.2480 hn         1 C4W       0.307500
     27 HO3         -1.1170     3.3740     0.3150 ho         1 C4W       0.458000
     28 HO4         -3.7520     2.1010    -0.0730 ho         1 C4W       0.514000
     29 HO6         -4.7490    -2.4440    -0.5700 ho         1 C4W       0.507000
     30 H1           0.0500    -1.0270     1.2000 h2         1 C4W       0.025700
     31 C7           3.0360     0.8040    -0.3940 c          1 C4W       0.607100
@<TRIPOS>BOND
     1     1     2 1   
     2     1     7 1   
     3     1    12 1   
     4     1    17 1   
     5     2     3 1   
     6     2     8 1   
     7     2    18 1   
     8     3     4 1   
     9     3     9 1   
    10     3    19 1   
    11     4     5 1   
    12     4    10 1   
    13     4    20 1   
    14     5    11 1   
    15     5    21 1   
    16     5    22 1   
    17     6    23 1   
    18     6    24 1   
    19     6    25 1   
    20     6    31 1   
    21     7    26 1   
    22     7    31 1   
    23     8    27 1   
    24     9    28 1   
    25    10    12 1   
    26    11    29 1   
    27    12    14 1   
    28    12    30 1   
    29    13    31 2   
    30    14    15 1   
    31    15    16 3   
@<TRIPOS>SUBSTRUCTURE
     1 C4W         1 TEMP              0 ****  ****    0 ROOT
