@<TRIPOS>MOLECULE
C4W
   31    31     1     0     0
SMALL
bcc


@<TRIPOS>ATOM
      1 C2           0.4670     0.4950    -0.1540 c6         1 C4W       0.060700
      2 C3          -0.5620     1.4960     0.3560 c6         1 C4W       0.138100
      3 C4          -1.9490     1.1150    -0.1550 c6         1 C4W       0.075100
      4 C5          -2.2600    -0.3420     0.2050 c6         1 C4W       0.121100
      5 C6          -3.5800    -0.8010    -0.3750 c3         1 C4W       0.149400
      6 C8           4.1240     1.2310     0.4570 c3         1 C4W      -0.182100
      7 N2           1.7740     0.7490     0.3900 ns         1 C4W      -0.583900
      8 O3          -0.1770     2.7750    -0.0680 oh         1 C4W      -0.579800
      9 O4          -2.8690     2.0020     0.4410 oh         1 C4W      -0.600800
     10 O5          -1.2490    -1.1900    -0.3120 os         1 C4W      -0.357600
     11 O6          -3.8480    -2.1060     0.0740 oh         1 C4W      -0.579800
     12 C1           0.0110    -0.9220     0.2130 c6         1 C4W       0.371300
     13 O7           2.8920     0.8760    -1.5730 o          1 C4W      -0.577100
     14 N1           0.8830    -1.9120    -0.3990 n2         1 C4W      -0.399200
     15 N3           1.8760    -2.2210     0.2350 n1         1 C4W       0.239000
     16 N4           2.8190    -2.5750     0.7320 n1         1 C4W      -0.072000
     17 H2           0.5340     0.5630    -1.2430 h1         1 C4W       0.124700
     18 H3          -0.5850     1.4380     1.4580 h1         1 C4W       0.036700
     19 H4          -1.9520     1.2150    -1.2500 h1         1 C4W       0.064700
     20 H5          -2.2990    -0.4320     1.3030 h1         1 C4W       0.061700
     21 H61         -4.3570    -0.0970    -0.0560 h1         1 C4W       0.027700
     22 H62         -3.5250    -0.7470    -1.4720 h1         1 C4W       0.027700
     23 H81          4.2450     0.5140     1.2690 hc         1 C4W       0.063033
     24 H82          5.0080     1.2020    -0.1750 hc         1 C4W       0.063033
     25 H83          4.0530     2.2230     0.9080 hc         1 C4W       0.063033
     26 HN2          1.8480     0.8660     1.3890 hn         1 C4W       0.307500
     27 HO3         -0.8260     3.4040     0.2630 ho         1 C4W       0.419000
     28 HO4         -3.5900     2.1670    -0.1730 ho         1 C4W       0.415000
     29 HO6         -4.6990    -2.3740    -0.2840 ho         1 C4W       0.408000
     30 H1           0.0080    -1.0280     1.3110 h2         1 C4W       0.025700
     31 C7           2.8870     0.9370    -0.3550 c          1 C4W       0.674100
@<TRIPOS>BOND
     1     1     2 1   
     2     1     7 1   
     3     1    12 1   
     4     1    17 1   
     5     2     3 1   
     6     2     8 1   
     7     2    18 1   
     8     3     4 1   
     9     3     9 1   
    10     3    19 1   
    11     4     5 1   
    12     4    10 1   
    13     4    20 1   
    14     5    11 1   
    15     5    21 1   
    16     5    22 1   
    17     6    23 1   
    18     6    24 1   
    19     6    25 1   
    20     6    31 1   
    21     7    26 1   
    22     7    31 1   
    23     8    27 1   
    24     9    28 1   
    25    10    12 1   
    26    11    29 1   
    27    12    14 1   
    28    12    30 1   
    29    13    31 2   
    30    14    15 1   
    31    15    16 3   
@<TRIPOS>SUBSTRUCTURE
     1 C4W         1 TEMP              0 ****  ****    0 ROOT
