@<TRIPOS>MOLECULE
C4X
   31    32     1     0     0
SMALL
bcc


@<TRIPOS>ATOM
      1 C1          81.6820    22.6020    10.4540 c6         1 C4X       0.349900
      2 C2          81.2670    23.7060    11.4250 c6         1 C4X       0.133100
      3 C3          82.4980    24.2060    12.1740 c6         1 C4X       0.109100
      4 C4          83.2280    23.0440    12.8310 c6         1 C4X       0.076100
      5 C5          83.5280    21.9910    11.7680 c6         1 C4X       0.113400
      6 O1          80.5560    22.0860     9.8610 os         1 C4X      -0.369600
      7 O2          80.6610    24.7340    10.6860 oh         1 C4X      -0.576800
      8 O3          82.0560    25.1660    13.1050 oh         1 C4X      -0.599800
      9 O4          84.4090    23.5500    13.4060 oh         1 C4X      -0.599800
     10 O5          82.3350    21.5670    11.1470 os         1 C4X      -0.434600
     11 C6          80.7910    21.2650     8.7300 c3         1 C4X       0.146400
     12 C7          79.5030    21.0630     7.9600 c3         1 C4X      -0.068400
     13 C8          78.8960    22.2590     7.2710 cx         1 C4X       0.057100
     14 C9          79.5520    23.5530     7.1070 cx         1 C4X       0.056400
     15 O           78.5020    23.3810     8.0430 op         1 C4X      -0.368600
     16 H1          82.3710    23.0270     9.6970 h2         1 C4X       0.026700
     17 H2          80.5690    23.2680    12.1560 h1         1 C4X       0.068700
     18 H3          83.1830    24.6620    11.4400 h1         1 C4X       0.049700
     19 H4          82.5700    22.6020    13.5930 h1         1 C4X       0.060700
     20 H51         84.2320    22.4050    11.0320 h1         1 C4X       0.054200
     21 H52         83.9910    21.1090    12.2120 h1         1 C4X       0.054200
     22 HO2         80.5010    25.4720    11.2830 ho         1 C4X       0.423000
     23 HO3         82.8260    25.6170    13.4650 ho         1 C4X       0.424000
     24 HO4         84.7630    22.8940    14.0140 ho         1 C4X       0.413000
     25 H1'1        81.5540    21.7170     8.0840 h1         1 C4X       0.030700
     26 H1'2        81.1710    20.2850     9.0360 h1         1 C4X       0.030700
     27 H2'1        79.7120    20.3210     7.1850 hc         1 C4X       0.060200
     28 H2'2        78.7490    20.6050     8.6080 hc         1 C4X       0.060200
     29 H6          78.1660    21.9830     6.5100 h1         1 C4X       0.075700
     30 H4'1        80.5380    23.7340     7.5280 h1         1 C4X       0.072200
     31 H4'2        79.3220    24.1600     6.2350 h1         1 C4X       0.072200
@<TRIPOS>BOND
     1     1     2 1   
     2     1     6 1   
     3     1    10 1   
     4     1    16 1   
     5     2     3 1   
     6     2     7 1   
     7     2    17 1   
     8     3     4 1   
     9     3     8 1   
    10     3    18 1   
    11     4     5 1   
    12     4     9 1   
    13     4    19 1   
    14     5    10 1   
    15     5    20 1   
    16     5    21 1   
    17     6    11 1   
    18     7    22 1   
    19     8    23 1   
    20     9    24 1   
    21    11    12 1   
    22    11    25 1   
    23    11    26 1   
    24    12    13 1   
    25    12    27 1   
    26    12    28 1   
    27    13    14 1   
    28    13    15 1   
    29    13    29 1   
    30    14    15 1   
    31    14    30 1   
    32    14    31 1   
@<TRIPOS>SUBSTRUCTURE
     1 C4X         1 TEMP              0 ****  ****    0 ROOT
