@<TRIPOS>MOLECULE
C4X
   31    32     1     0     0
SMALL
No Charge or Current Charge


@<TRIPOS>ATOM
      1 C1          81.8300    22.6960    10.3270 c6         1 C4X       0.396300
      2 C2          81.5430    23.9780    11.1840 c6         1 C4X       0.156300
      3 C3          82.8100    24.3110    12.0240 c6         1 C4X       0.132300
      4 C4          83.2300    23.0820    12.8830 c6         1 C4X       0.099300
      5 C5          83.4130    21.8460    11.9520 c6         1 C4X       0.136600
      6 O1          80.6690    22.3090     9.5730 os         1 C4X      -0.416000
      7 O2          81.1640    25.1290    10.3920 oh         1 C4X      -0.699000
      8 O3          82.5820    25.4520    12.8690 oh         1 C4X      -0.662000
      9 O4          84.4360    23.3800    13.6180 oh         1 C4X      -0.722000
     10 O5          82.2020    21.6050    11.2000 os         1 C4X      -0.481000
     11 C6          80.8500    21.2410     8.6300 c3         1 C4X       0.169600
     12 C7          79.5190    21.0300     7.8810 c3         1 C4X      -0.068400
     13 C8          79.1040    22.2260     7.0300 cx         1 C4X       0.080300
     14 C9          78.4510    23.4260     7.6550 cx         1 C4X       0.079600
     15 O           77.6850    22.4650     6.8900 op         1 C4X      -0.415000
     16 H1          82.6570    22.9050     9.6310 h2         1 C4X       0.026700
     17 H2          80.7290    23.7280    11.8810 h1         1 C4X       0.068700
     18 H3          83.6330    24.5300    11.3260 h1         1 C4X       0.049700
     19 H4          82.4110    22.8550    13.5840 h1         1 C4X       0.060700
     20 H51         84.2480    22.0080    11.2550 h1         1 C4X       0.054200
     21 H52         83.6360    20.9520    12.5530 h1         1 C4X       0.054200
     22 HO2         81.3240    25.9030    10.9850 ho         1 C4X       0.522000
     23 HO3         83.2940    25.4040    13.5490 ho         1 C4X       0.463000
     24 HO4         84.5990    22.6290    14.2390 ho         1 C4X       0.512000
     25 H1'1        81.6420    21.4850     7.9110 h1         1 C4X       0.030700
     26 H1'2        81.1260    20.3120     9.1460 h1         1 C4X       0.030700
     27 H2'1        79.6270    20.1520     7.2320 hc         1 C4X       0.060200
     28 H2'2        78.7350    20.7840     8.6070 hc         1 C4X       0.060200
     29 H6          79.6960    22.3800     6.1270 h1         1 C4X       0.075700
     30 H4'1        78.2570    23.4290     8.7270 h1         1 C4X       0.072200
     31 H4'2        78.5780    24.4010     7.1860 h1         1 C4X       0.072200
@<TRIPOS>BOND
     1     1     2 1   
     2     1     6 1   
     3     1    10 1   
     4     1    16 1   
     5     2     3 1   
     6     2     7 1   
     7     2    17 1   
     8     3     4 1   
     9     3     8 1   
    10     3    18 1   
    11     4     5 1   
    12     4     9 1   
    13     4    19 1   
    14     5    10 1   
    15     5    20 1   
    16     5    21 1   
    17     6    11 1   
    18     7    22 1   
    19     8    23 1   
    20     9    24 1   
    21    11    12 1   
    22    11    25 1   
    23    11    26 1   
    24    12    13 1   
    25    12    27 1   
    26    12    28 1   
    27    13    14 1   
    28    13    15 1   
    29    13    29 1   
    30    14    15 1   
    31    14    30 1   
    32    14    31 1   
@<TRIPOS>SUBSTRUCTURE
     1 C4X         1 TEMP              0 ****  ****    0 ROOT
