@<TRIPOS>MOLECULE
C4Z
   85    88     1     0     0
SMALL
bcc


@<TRIPOS>ATOM
      1 C4          -1.7680     1.0330     0.6170 c6         1 C4Z       0.087100
      2 C5          -0.5690     1.8810     1.0430 c6         1 C4Z       0.132100
      3 C6          -0.2830     1.7500     2.5230 c3         1 C4Z       0.140400
      4 C3          -1.9520     1.2120    -0.8850 c6         1 C4Z       0.128100
      5 CAD         -5.4410    -0.1380     1.0360 c6         1 C4Z      -0.069900
      6 CAC         -5.4320    -1.0740     2.2420 c6         1 C4Z      -0.073400
      7 CAB         -6.5210    -2.1350     2.1380 c6         1 C4Z      -0.070400
      8 CAG         -6.4030    -2.9100     0.8300 c6         1 C4Z      -0.073400
      9 CAF         -6.3990    -1.9680    -0.3710 c6         1 C4Z      -0.069900
     10 CAE         -5.2990    -0.9110    -0.2740 c6         1 C4Z      -0.062700
     11 CAH         -5.3230    -0.0090    -1.5080 c3         1 C4Z      -0.051400
     12 CAI         -4.2310     1.0560    -1.5450 c3         1 C4Z       0.003100
     13 CBM         -4.2990     1.8690    -2.8570 c          1 C4Z       0.912600
     14 OBN         -5.3540     2.4910    -3.0530 o          1 C4Z      -0.818800
     15 OBO         -3.3070     1.8400    -3.6260 o          1 C4Z      -0.818800
     16 O3          -2.9900     0.4110    -1.3810 os         1 C4Z      -0.387600
     17 C2          -0.6790     0.8730    -1.6520 c6         1 C4Z       0.152100
     18 O2          -0.7970     1.1740    -3.0130 oh         1 C4Z      -0.645800
     19 O4          -1.5950    -0.3370     0.8940 oh         1 C4Z      -0.569800
     20 O6           0.7250     2.6610     2.8870 oh         1 C4Z      -0.583800
     21 O5           0.5830     1.5000     0.3310 os         1 C4Z      -0.435600
     22 C1           0.4960     1.6560    -1.0630 c6         1 C4Z       0.334900
     23 O1           1.6490     1.1460    -1.6160 os         1 C4Z      -0.377600
     24 CAR          2.8270     1.9280    -1.5060 c6         1 C4Z       0.155100
     25 CAW          3.1320     2.5760    -2.8520 c6         1 C4Z      -0.098400
     26 CAV          4.4590     3.3250    -2.8370 c6         1 C4Z      -0.074400
     27 CAU          5.5930     2.3960    -2.4220 c6         1 C4Z      -0.072400
     28 CAT          5.2990     1.7660    -1.0660 c6         1 C4Z      -0.101400
     29 CAS          3.9680     1.0180    -1.0620 c6         1 C4Z       0.145100
     30 OAX          3.6730     0.5580     0.2410 os         1 C4Z      -0.409600
     31 CAY          4.1060    -0.7160     0.5760 c6         1 C4Z       0.318900
     32 OBA          3.2850    -1.7230     0.0550 os         1 C4Z      -0.424600
     33 CBB          1.9360    -1.6880     0.5180 c6         1 C4Z       0.107100
     34 CBH          1.1770    -2.7820    -0.2030 c3         1 C4Z      -0.089100
     35 CBC          1.8720    -1.8170     2.0390 c6         1 C4Z       0.125100
     36 OBG          2.3290    -3.0640     2.5120 oh         1 C4Z      -0.590800
     37 CBD          2.7310    -0.7260     2.6620 c6         1 C4Z       0.154100
     38 OBF          2.7010    -0.8630     4.0630 oh         1 C4Z      -0.594800
     39 CAZ          4.1490    -0.8070     2.1070 c6         1 C4Z       0.092100
     40 OBE          4.9010     0.2330     2.6820 oh         1 C4Z      -0.593800
     41 H1          -2.6620     1.4280     1.1220 h1         1 C4Z       0.034700
     42 H2          -0.8230     2.9350     0.8340 h1         1 C4Z       0.046700
     43 H3          -1.2190     1.9450     3.0640 h1         1 C4Z       0.020700
     44 H4           0.0120     0.7170     2.7460 h1         1 C4Z       0.020700
     45 H5          -2.1700     2.2800    -1.0500 h1         1 C4Z       0.053700
     46 H8          -4.4540    -1.5650     2.2990 hc         1 C4Z       0.028200
     47 H9          -5.5430    -0.4990     3.1650 hc         1 C4Z       0.028200
     48 H10         -6.4700    -2.8170     2.9910 hc         1 C4Z       0.027200
     49 H11         -7.5030    -1.6520     2.1830 hc         1 C4Z       0.027200
     50 H12         -5.4780    -3.4970     0.8350 hc         1 C4Z       0.028200
     51 H13         -7.2230    -3.6280     0.7400 hc         1 C4Z       0.028200
     52 H14         -6.2880    -2.5410    -1.2970 hc         1 C4Z       0.035700
     53 H15         -7.3720    -1.4640    -0.4340 hc         1 C4Z       0.035700
     54 H16         -4.3330    -1.4280    -0.2470 hc         1 C4Z       0.062700
     55 H19         -4.4060     1.7620    -0.7190 h1         1 C4Z       0.013700
     56 H21         -0.4630    -0.1980    -1.5050 h1         1 C4Z       0.061700
     57 H22         -1.7480     1.3500    -3.2260 ho         1 C4Z       0.493000
     58 H23         -1.8640    -0.5110     1.8000 ho         1 C4Z       0.384000
     59 H24          0.9540     2.5000     3.8070 ho         1 C4Z       0.396000
     60 H25          0.3710     2.7300    -1.3060 h2         1 C4Z       0.024700
     61 H26          2.7010     2.7100    -0.7440 h1         1 C4Z       0.057700
     62 H27          3.1660     1.7940    -3.6180 hc         1 C4Z       0.059700
     63 H28          2.3120     3.2480    -3.1220 hc         1 C4Z       0.059700
     64 H29          4.6540     3.7540    -3.8220 hc         1 C4Z       0.036700
     65 H30          4.4040     4.1650    -2.1360 hc         1 C4Z       0.036700
     66 H31          5.7190     1.6120    -3.1780 hc         1 C4Z       0.034200
     67 H32          6.5400     2.9400    -2.3810 hc         1 C4Z       0.034200
     68 H33          6.1020     1.0820    -0.7800 hc         1 C4Z       0.041200
     69 H34          5.2640     2.5500    -0.3020 hc         1 C4Z       0.041200
     70 H35          4.0210     0.1780    -1.7700 h1         1 C4Z       0.056700
     71 H36          5.1040    -0.9190     0.1610 h2         1 C4Z       0.048700
     72 H37          1.4790    -0.7310     0.2640 h1         1 C4Z       0.101700
     73 H38          1.5650    -3.7790     0.0130 hc         1 C4Z       0.045367
     74 H39          0.1250    -2.7490     0.0860 hc         1 C4Z       0.045367
     75 H40          1.2240    -2.6360    -1.2820 hc         1 C4Z       0.045367
     76 H41          0.8240    -1.6470     2.3310 h1         1 C4Z       0.047700
     77 H42          1.6980    -3.7400     2.2460 ho         1 C4Z       0.400000
     78 H43          2.2950     0.2370     2.3580 h1         1 C4Z       0.080700
     79 H44          3.2310    -0.1530     4.4380 ho         1 C4Z       0.408000
     80 H45          4.5740    -1.7860     2.3640 h1         1 C4Z       0.062700
     81 H46          5.8350     0.0570     2.5390 ho         1 C4Z       0.399000
     82 H17         -5.2450    -0.6370    -2.4040 hc         1 C4Z       0.053200
     83 H6          -6.3750     0.4380     1.0200 hc         1 C4Z       0.035700
     84 H18         -6.2900     0.4960    -1.5720 hc         1 C4Z       0.053200
     85 H7          -4.6340     0.5910     1.1430 hc         1 C4Z       0.035700
@<TRIPOS>BOND
     1     1     2 1   
     2     1     4 1   
     3     1    19 1   
     4     1    41 1   
     5     2     3 1   
     6     2    21 1   
     7     2    42 1   
     8     3    20 1   
     9     3    43 1   
    10     3    44 1   
    11     4    16 1   
    12     4    17 1   
    13     4    45 1   
    14     5     6 1   
    15     5    10 1   
    16     5    83 1   
    17     5    85 1   
    18     6     7 1   
    19     6    46 1   
    20     6    47 1   
    21     7     8 1   
    22     7    48 1   
    23     7    49 1   
    24     8     9 1   
    25     8    50 1   
    26     8    51 1   
    27     9    10 1   
    28     9    52 1   
    29     9    53 1   
    30    10    11 1   
    31    10    54 1   
    32    11    12 1   
    33    11    82 1   
    34    11    84 1   
    35    12    13 1   
    36    12    16 1   
    37    12    55 1   
    38    13    14 1   
    39    13    15 1   
    40    17    18 1   
    41    17    22 1   
    42    17    56 1   
    43    18    57 1   
    44    19    58 1   
    45    20    59 1   
    46    21    22 1   
    47    22    23 1   
    48    22    60 1   
    49    23    24 1   
    50    24    25 1   
    51    24    29 1   
    52    24    61 1   
    53    25    26 1   
    54    25    62 1   
    55    25    63 1   
    56    26    27 1   
    57    26    64 1   
    58    26    65 1   
    59    27    28 1   
    60    27    66 1   
    61    27    67 1   
    62    28    29 1   
    63    28    68 1   
    64    28    69 1   
    65    29    30 1   
    66    29    70 1   
    67    30    31 1   
    68    31    32 1   
    69    31    39 1   
    70    31    71 1   
    71    32    33 1   
    72    33    34 1   
    73    33    35 1   
    74    33    72 1   
    75    34    73 1   
    76    34    74 1   
    77    34    75 1   
    78    35    36 1   
    79    35    37 1   
    80    35    76 1   
    81    36    77 1   
    82    37    38 1   
    83    37    39 1   
    84    37    78 1   
    85    38    79 1   
    86    39    40 1   
    87    39    80 1   
    88    40    81 1   
@<TRIPOS>SUBSTRUCTURE
     1 C4Z         1 TEMP              0 ****  ****    0 ROOT
