@<TRIPOS>MOLECULE
C4Z
   85    88     1     0     0
SMALL
No Charge or Current Charge


@<TRIPOS>ATOM
      1 C4          -2.2020     1.6300     0.6610 c6         1 C4Z       0.110300
      2 C5          -0.9830     2.5770     0.9140 c6         1 C4Z       0.155300
      3 C6          -0.9260     3.1130     2.3830 c3         1 C4Z       0.163600
      4 C3          -2.1390     1.1020    -0.8020 c6         1 C4Z       0.151300
      5 CAD         -6.3080     0.3890     0.7670 c6         1 C4Z      -0.069900
      6 CAC         -6.6660     0.0190     2.2280 c6         1 C4Z      -0.073400
      7 CAB         -7.7140    -1.1180     2.2810 c6         1 C4Z      -0.070400
      8 CAG         -7.2280    -2.3580     1.4930 c6         1 C4Z      -0.073400
      9 CAF         -6.8740    -1.9900     0.0310 c6         1 C4Z      -0.069900
     10 CAE         -5.8150    -0.8530    -0.0350 c6         1 C4Z      -0.062700
     11 CAH         -5.4630    -0.5100    -1.5190 c3         1 C4Z      -0.051400
     12 CAI         -4.3650     0.5650    -1.7340 c3         1 C4Z       0.026300
     13 CBM         -4.0860     0.7990    -3.2600 c          1 C4Z       0.702000
     14 OBN         -4.9640     1.3100    -3.9420 o          1 C4Z      -0.713500
     15 OBO         -2.9740     0.5190    -3.6980 o          1 C4Z      -0.713500
     16 O3          -3.1790     0.1190    -1.0250 os         1 C4Z      -0.434000
     17 C2          -0.7470     0.4860    -1.1420 c6         1 C4Z       0.175300
     18 O2          -0.6990     0.0400    -2.5280 oh         1 C4Z      -0.768000
     19 O4          -2.2470     0.5120     1.5700 oh         1 C4Z      -0.692000
     20 O6           0.1500     4.0460     2.6070 oh         1 C4Z      -0.706000
     21 O5           0.2640     1.9000     0.6050 os         1 C4Z      -0.482000
     22 C1           0.3780     1.5210    -0.7820 c6         1 C4Z       0.381300
     23 O1           1.6880     0.9570    -0.9970 os         1 C4Z      -0.424000
     24 CAR          2.8010     1.8810    -0.9310 c6         1 C4Z       0.178300
     25 CAW          2.8480     2.7700    -2.2080 c6         1 C4Z      -0.098400
     26 CAV          4.0880     3.6970    -2.2180 c6         1 C4Z      -0.074400
     27 CAU          5.3930     2.8820    -2.0780 c6         1 C4Z      -0.072400
     28 CAT          5.3710     2.0160    -0.7970 c6         1 C4Z      -0.101400
     29 CAS          4.1310     1.0790    -0.7620 c6         1 C4Z       0.168300
     30 OAX          4.1010     0.3410     0.4830 os         1 C4Z      -0.456000
     31 CAY          4.9820    -0.7990     0.5630 c6         1 C4Z       0.365300
     32 OBA          4.5280    -1.8240    -0.3530 os         1 C4Z      -0.471000
     33 CBB          3.2220    -2.3710    -0.0450 c6         1 C4Z       0.130300
     34 CBH          2.8410    -3.3200    -1.2110 c3         1 C4Z      -0.089100
     35 CBC          3.2420    -3.0680     1.3560 c6         1 C4Z       0.148300
     36 OBG          4.1660    -4.1870     1.3850 oh         1 C4Z      -0.713000
     37 CBD          3.6430    -1.9750     2.4030 c6         1 C4Z       0.177300
     38 OBF          3.6790    -2.4900     3.7510 oh         1 C4Z      -0.657000
     39 CAZ          5.0210    -1.3390     2.0350 c6         1 C4Z       0.115300
     40 OBE          5.3520    -0.2910     2.9820 oh         1 C4Z      -0.716000
     41 H1          -3.1230     2.2220     0.7680 h1         1 C4Z       0.034700
     42 H2          -1.0760     3.4500     0.2500 h1         1 C4Z       0.046700
     43 H3          -1.8870     3.5950     2.6070 h1         1 C4Z       0.020700
     44 H4          -0.8240     2.2570     3.0630 h1         1 C4Z       0.020700
     45 H5          -2.2990     1.9580    -1.4750 h1         1 C4Z       0.053700
     46 H8          -5.7580    -0.2890     2.7630 hc         1 C4Z       0.028200
     47 H9          -7.0510     0.9050     2.7510 hc         1 C4Z       0.028200
     48 H10         -7.9130    -1.3930     3.3250 hc         1 C4Z       0.027200
     49 H11         -8.6670    -0.7640     1.8630 hc         1 C4Z       0.027200
     50 H12         -6.3480    -2.7900     1.9900 hc         1 C4Z       0.028200
     51 H13         -8.0050    -3.1340     1.5040 hc         1 C4Z       0.028200
     52 H14         -6.4990    -2.8820    -0.4880 hc         1 C4Z       0.035700
     53 H15         -7.7860    -1.6820    -0.4990 hc         1 C4Z       0.035700
     54 H16         -4.8920    -1.2250     0.4320 hc         1 C4Z       0.062700
     55 H19         -4.7170     1.5170    -1.3160 h1         1 C4Z       0.013700
     56 H21         -0.6010    -0.3820    -0.4830 h1         1 C4Z       0.061700
     57 H22         -1.6230     0.1910    -2.9170 ho         1 C4Z       0.592000
     58 H23         -2.8090    -0.1590     1.1180 ho         1 C4Z       0.483000
     59 H24          0.1580     4.2470     3.5710 ho         1 C4Z       0.495000
     60 H25          0.2500     2.4110    -1.4150 h2         1 C4Z       0.024700
     61 H26          2.6810     2.5260    -0.0480 h1         1 C4Z       0.057700
     62 H27          2.8590     2.1300    -3.1010 hc         1 C4Z       0.059700
     63 H28          1.9460     3.3900    -2.2790 hc         1 C4Z       0.059700
     64 H29          4.1100     4.2790    -3.1490 hc         1 C4Z       0.036700
     65 H30          4.0140     4.4240    -1.3970 hc         1 C4Z       0.036700
     66 H31          5.5260     2.2390    -2.9600 hc         1 C4Z       0.034200
     67 H32          6.2560     3.5620    -2.0540 hc         1 C4Z       0.034200
     68 H33          6.2960     1.4270    -0.7490 hc         1 C4Z       0.041200
     69 H34          5.3660     2.6680     0.0870 hc         1 C4Z       0.041200
     70 H35          4.1980     0.3700    -1.6000 h1         1 C4Z       0.056700
     71 H36          6.0000    -0.4940     0.2820 h2         1 C4Z       0.048700
     72 H37          2.4820    -1.5550    -0.0290 h1         1 C4Z       0.101700
     73 H38          3.5890    -4.1080    -1.3590 hc         1 C4Z       0.045367
     74 H39          1.8730    -3.8010    -1.0260 hc         1 C4Z       0.045367
     75 H40          2.7560    -2.7620    -2.1510 hc         1 C4Z       0.045367
     76 H41          2.2240    -3.4140     1.5870 h1         1 C4Z       0.047700
     77 H42          3.8660    -4.8250     0.7000 ho         1 C4Z       0.499000
     78 H43          2.8850    -1.1780     2.3450 h1         1 C4Z       0.080700
     79 H44          4.3120    -1.9010     4.2210 ho         1 C4Z       0.447000
     80 H45          5.7870    -2.1270     2.0760 h1         1 C4Z       0.062700
     81 H46          4.9310     0.5310     2.6330 ho         1 C4Z       0.498000
     82 H17         -5.1450    -1.4240    -2.0360 hc         1 C4Z       0.053200
     83 H6          -7.1850     0.8280     0.2720 hc         1 C4Z       0.035700
     84 H18         -6.3720    -0.1770    -2.0350 hc         1 C4Z       0.053200
     85 H7          -5.5350     1.1680     0.7800 hc         1 C4Z       0.035700
@<TRIPOS>BOND
     1     1     2 1   
     2     1     4 1   
     3     1    19 1   
     4     1    41 1   
     5     2     3 1   
     6     2    21 1   
     7     2    42 1   
     8     3    20 1   
     9     3    43 1   
    10     3    44 1   
    11     4    16 1   
    12     4    17 1   
    13     4    45 1   
    14     5     6 1   
    15     5    10 1   
    16     5    83 1   
    17     5    85 1   
    18     6     7 1   
    19     6    46 1   
    20     6    47 1   
    21     7     8 1   
    22     7    48 1   
    23     7    49 1   
    24     8     9 1   
    25     8    50 1   
    26     8    51 1   
    27     9    10 1   
    28     9    52 1   
    29     9    53 1   
    30    10    11 1   
    31    10    54 1   
    32    11    12 1   
    33    11    82 1   
    34    11    84 1   
    35    12    13 1   
    36    12    16 1   
    37    12    55 1   
    38    13    14 1   
    39    13    15 1   
    40    17    18 1   
    41    17    22 1   
    42    17    56 1   
    43    18    57 1   
    44    19    58 1   
    45    20    59 1   
    46    21    22 1   
    47    22    23 1   
    48    22    60 1   
    49    23    24 1   
    50    24    25 1   
    51    24    29 1   
    52    24    61 1   
    53    25    26 1   
    54    25    62 1   
    55    25    63 1   
    56    26    27 1   
    57    26    64 1   
    58    26    65 1   
    59    27    28 1   
    60    27    66 1   
    61    27    67 1   
    62    28    29 1   
    63    28    68 1   
    64    28    69 1   
    65    29    30 1   
    66    29    70 1   
    67    30    31 1   
    68    31    32 1   
    69    31    39 1   
    70    31    71 1   
    71    32    33 1   
    72    33    34 1   
    73    33    35 1   
    74    33    72 1   
    75    34    73 1   
    76    34    74 1   
    77    34    75 1   
    78    35    36 1   
    79    35    37 1   
    80    35    76 1   
    81    36    77 1   
    82    37    38 1   
    83    37    39 1   
    84    37    78 1   
    85    38    79 1   
    86    39    40 1   
    87    39    80 1   
    88    40    81 1   
@<TRIPOS>SUBSTRUCTURE
     1 C4Z         1 TEMP              0 ****  ****    0 ROOT
