@<TRIPOS>MOLECULE
C50
   42    43     1     0     0
SMALL
abcg2


@<TRIPOS>ATOM
      1 N1         -30.6700    15.7340    52.6400 n2         1 C50      -0.758900
      2 C2         -29.6920    16.5600    52.4520 ce         1 C50       0.867200
      3 N3         -29.6430    17.8960    52.8070 ne         1 C50      -0.881000
      4 C4         -30.5730    18.2770    53.6490 c2         1 C50       0.860100
      5 N5         -31.4710    17.3720    54.1700 nh         1 C50      -0.555100
      6 C6         -31.8770    16.2680    53.2430 c6         1 C50       0.445400
      7 N7         -28.5330    16.1120    51.8640 nv         1 C50      -1.005200
      8 N8         -30.6260    19.5400    54.0920 nv         1 C50      -1.044200
      9 O9         -32.5530    17.9720    54.8400 os         1 C50      -0.258300
     10 C10        -32.4630    17.7510    56.2640 c3         1 C50       0.150600
     11 C11        -33.7430    18.2790    56.8800 c3         1 C50      -0.082400
     12 C12        -34.9900    17.5790    56.3760 c3         1 C50       0.166600
     13 O13        -34.8710    16.1880    56.7170 os         1 C50      -0.343100
     14 C14        -35.7270    15.3050    56.1650 ca         1 C50       0.160100
     15 C15        -35.4420    13.9430    56.3730 ca         1 C50       0.080000
     16 C16        -36.2760    12.9730    55.8280 ca         1 C50       0.158000
     17 C17        -37.3910    13.3280    55.0760 ca         1 C50      -0.135000
     18 C18        -37.6650    14.6720    54.8770 ca         1 C50      -0.062000
     19 C19        -36.8460    15.6590    55.4140 ca         1 C50      -0.193000
     20 CL20       -34.0400    13.5150    57.3010 cl         1 C50      -0.160000
     21 CL21       -35.9390    11.2810    56.0680 cl         1 C50      -0.178000
     22 C22        -32.5560    15.1740    54.0570 c3         1 C50      -0.098100
     23 C23        -32.8270    16.8090    52.1650 c3         1 C50      -0.098100
     24 HN7        -28.6100    15.2650    51.3230 hn         1 C50       0.474000
     25 HN7A       -27.9370    16.8230    51.4720 hn         1 C50       0.474000
     26 HN8        -29.9870    20.2080    53.6950 hn         1 C50       0.505500
     27 HN8A       -31.4480    19.8670    54.5700 hn         1 C50       0.505500
     28 H10        -32.3430    16.6850    56.4520 h1         1 C50       0.059200
     29 H10A       -31.5940    18.2820    56.6580 h1         1 C50       0.059200
     30 H11        -33.6690    18.1680    57.9640 hc         1 C50       0.063700
     31 H11A       -33.8450    19.3470    56.6700 hc         1 C50       0.063700
     32 H12        -35.8860    17.9950    56.8430 h1         1 C50       0.046700
     33 H12A       -35.0780    17.6760    55.2920 h1         1 C50       0.046700
     34 H17        -38.0250    12.5580    54.6620 ha         1 C50       0.135000
     35 H18        -38.5310    14.9590    54.2950 ha         1 C50       0.121000
     36 H19        -37.0810    16.6990    55.2500 ha         1 C50       0.123000
     37 H22        -33.4810    15.5290    54.5060 hc         1 C50       0.048033
     38 H22A       -32.7900    14.3430    53.3920 hc         1 C50       0.048033
     39 H22B       -31.8900    14.8150    54.8410 hc         1 C50       0.048033
     40 H23        -33.7340    17.2170    52.6130 hc         1 C50       0.048033
     41 H23A       -32.3370    17.5900    51.5810 hc         1 C50       0.048033
     42 H23B       -33.1040    15.9970    51.4930 hc         1 C50       0.048033
@<TRIPOS>BOND
     1     1     2 2   
     2     1     6 1   
     3     2     3 1   
     4     2     7 1   
     5     3     4 2   
     6     4     5 1   
     7     4     8 1   
     8     5     6 1   
     9     5     9 1   
    10     6    22 1   
    11     6    23 1   
    12     7    24 1   
    13     7    25 1   
    14     8    26 1   
    15     8    27 1   
    16     9    10 1   
    17    10    11 1   
    18    10    28 1   
    19    10    29 1   
    20    11    12 1   
    21    11    30 1   
    22    11    31 1   
    23    12    13 1   
    24    12    32 1   
    25    12    33 1   
    26    13    14 1   
    27    14    15 ar  
    28    14    19 ar  
    29    15    16 ar  
    30    15    20 1   
    31    16    17 ar  
    32    16    21 1   
    33    17    18 ar  
    34    17    34 1   
    35    18    19 ar  
    36    18    35 1   
    37    19    36 1   
    38    22    37 1   
    39    22    38 1   
    40    22    39 1   
    41    23    40 1   
    42    23    41 1   
    43    23    42 1   
@<TRIPOS>SUBSTRUCTURE
     1 C50         1 TEMP              0 ****  ****    0 ROOT
