@<TRIPOS>MOLECULE
C50
   42    43     1     0     0
SMALL
No Charge or Current Charge


@<TRIPOS>ATOM
      1 N1         -30.6150    15.8310    52.5050 n2         1 C50      -0.758900
      2 C2         -29.5620    16.5320    52.5140 ce         1 C50       0.867200
      3 N3         -29.4440    17.8120    52.9060 ne         1 C50      -0.881000
      4 C4         -30.2890    18.1230    53.7910 c2         1 C50       0.860100
      5 N5         -31.3250    17.3440    54.2320 nh         1 C50      -0.555100
      6 C6         -31.7270    16.2050    53.3820 c6         1 C50       0.445400
      7 N7         -28.7110    16.4880    51.5270 nv         1 C50      -1.005200
      8 N8         -30.2700    19.3860    54.1810 nv         1 C50      -1.044200
      9 O9         -32.4640    18.0120    54.8600 os         1 C50      -0.258300
     10 C10        -32.4590    17.8280    56.2900 c3         1 C50       0.150600
     11 C11        -33.7970    18.3620    56.8420 c3         1 C50      -0.082400
     12 C12        -35.0360    17.6610    56.2490 c3         1 C50       0.166600
     13 O13        -34.9330    16.2580    56.5460 os         1 C50      -0.343100
     14 C14        -35.8190    15.3230    56.0430 ca         1 C50       0.160100
     15 C15        -35.5710    13.9560    56.2940 ca         1 C50       0.080000
     16 C16        -36.4510    12.9780    55.7840 ca         1 C50       0.158000
     17 C17        -37.5720    13.3620    55.0310 ca         1 C50      -0.135000
     18 C18        -37.8230    14.7210    54.7810 ca         1 C50      -0.062000
     19 C19        -36.9510    15.7010    55.2840 ca         1 C50      -0.193000
     20 Cl20       -34.1520    13.4760    57.2390 cl         1 C50      -0.160000
     21 Cl21       -36.1690    11.2610    56.0740 cl         1 C50      -0.178000
     22 C22        -32.0770    14.9730    54.2570 c3         1 C50      -0.098100
     23 C23        -32.9440    16.5560    52.4770 c3         1 C50      -0.098100
     24 HN7        -29.1260    16.0440    50.7240 hn         1 C50       0.474000
     25 HN7A       -28.3830    17.4270    51.3740 hn         1 C50       0.474000
     26 HN8        -29.8610    19.9420    53.4470 hn         1 C50       0.505500
     27 HN8A       -31.2070    19.6520    54.4410 hn         1 C50       0.505500
     28 H10        -32.3550    16.7670    56.5500 h1         1 C50       0.059200
     29 H10A       -31.6240    18.3720    56.7490 h1         1 C50       0.059200
     30 H11        -33.8060    18.2440    57.9310 hc         1 C50       0.063700
     31 H11A       -33.8640    19.4370    56.6400 hc         1 C50       0.063700
     32 H12        -35.9470    18.0860    56.6900 h1         1 C50       0.046700
     33 H12A       -35.0650    17.8280    55.1640 h1         1 C50       0.046700
     34 H17        -38.2470    12.6040    54.6410 ha         1 C50       0.135000
     35 H18        -38.6940    15.0140    54.1970 ha         1 C50       0.121000
     36 H19        -37.1700    16.7440    55.0770 ha         1 C50       0.123000
     37 H22        -32.9520    15.1690    54.8860 hc         1 C50       0.048033
     38 H22A       -32.3100    14.0980    53.6400 hc         1 C50       0.048033
     39 H22B       -31.2450    14.7050    54.9180 hc         1 C50       0.048033
     40 H23        -33.8450    16.7560    53.0680 hc         1 C50       0.048033
     41 H23A       -32.7410    17.4430    51.8670 hc         1 C50       0.048033
     42 H23B       -33.1810    15.7310    51.7960 hc         1 C50       0.048033
@<TRIPOS>BOND
     1     1     2 2   
     2     1     6 1   
     3     2     3 1   
     4     2     7 1   
     5     3     4 2   
     6     4     5 1   
     7     4     8 1   
     8     5     6 1   
     9     5     9 1   
    10     6    22 1   
    11     6    23 1   
    12     7    24 1   
    13     7    25 1   
    14     8    26 1   
    15     8    27 1   
    16     9    10 1   
    17    10    11 1   
    18    10    28 1   
    19    10    29 1   
    20    11    12 1   
    21    11    30 1   
    22    11    31 1   
    23    12    13 1   
    24    12    32 1   
    25    12    33 1   
    26    13    14 1   
    27    14    15 ar  
    28    14    19 ar  
    29    15    16 ar  
    30    15    20 1   
    31    16    17 ar  
    32    16    21 1   
    33    17    18 ar  
    34    17    34 1   
    35    18    19 ar  
    36    18    35 1   
    37    19    36 1   
    38    22    37 1   
    39    22    38 1   
    40    22    39 1   
    41    23    40 1   
    42    23    41 1   
    43    23    42 1   
@<TRIPOS>SUBSTRUCTURE
     1 C50         1 TEMP              0 ****  ****    0 ROOT
