@<TRIPOS>MOLECULE
C51
   54    57     1     0     0
SMALL
bcc


@<TRIPOS>ATOM
      1 C13         -3.5920    -0.1820     0.0440 ca         1 C51       0.099600
      2 C18         -3.6480    -1.4150     0.7080 ca         1 C51      -0.180000
      3 C17         -4.6590    -2.3130     0.4520 ca         1 C51      -0.058500
      4 C16         -5.6470    -1.9970    -0.4830 ca         1 C51      -0.054000
      5 C15         -5.5960    -0.7740    -1.1490 ca         1 C51      -0.058500
      6 C19         -6.6990    -2.9180    -0.7540 cg         1 C51       0.240800
      7 C21          3.2440     0.0090     2.0610 ca         1 C51      -0.257300
      8 C22          4.0070    -0.9710     2.7230 ca         1 C51       0.417200
      9 C24          4.8800    -1.7410     0.7690 ca         1 C51       0.396600
     10 C27          5.8590    -2.6420    -1.2490 ca         1 C51      -0.120000
     11 C1           0.0250     2.7630    -0.6130 c6         1 C51      -0.050700
     12 C2           0.3510     1.4770    -1.3830 c6         1 C51      -0.076900
     13 C3           1.1750     0.4880    -0.5640 c6         1 C51      -0.069900
     14 C4           2.4730     1.1340    -0.0570 c6         1 C51      -0.025400
     15 C5           2.1540     2.4030     0.7350 c6         1 C51      -0.069900
     16 C6           1.3370     3.3740    -0.1110 c6         1 C51      -0.076900
     17 C7           3.2990     0.1230     0.6950 ca         1 C51      -0.018300
     18 C8          -0.9980     2.5310     0.5190 c3         1 C51      -0.133700
     19 C9          -1.3900     3.8220     1.2380 c3         1 C51      -0.086100
     20 C10         -2.2520     1.9130    -0.0700 c          1 C51       0.675100
     21 N11         -2.5320     0.6530     0.3730 ns         1 C51      -0.473100
     22 O12         -2.9410     2.5080    -0.8770 o          1 C51      -0.572100
     23 C14         -4.5810     0.1300    -0.8940 ca         1 C51      -0.180000
     24 N20         -7.5500    -3.6640    -0.9720 n1         1 C51      -0.369800
     25 N23          4.7980    -1.8140     2.1200 nb         1 C51      -0.659000
     26 C25          4.1480    -0.7940     0.0040 ca         1 C51      -0.140300
     27 C26          5.7350    -2.6560     0.1130 ca         1 C51      -0.164300
     28 C28          5.1320    -1.7100    -2.0140 ca         1 C51      -0.124000
     29 C29          4.2990    -0.8110    -1.4040 ca         1 C51      -0.116000
     30 H48         -2.8860    -1.6690     1.4340 ha         1 C51       0.153000
     31 H47         -4.6840    -3.2580     0.9770 ha         1 C51       0.144500
     32 H46         -6.3570    -0.5230    -1.8760 ha         1 C51       0.144500
     33 H50          3.9480    -1.0420     3.8040 h4         1 C51       0.018100
     34 H52          6.5150    -3.3470    -1.7440 ha         1 C51       0.136000
     35 H30         -0.4340     3.4710    -1.3100 hc         1 C51       0.069700
     36 H32         -0.5550     0.9890    -1.7500 hc         1 C51       0.048200
     37 H31          0.9190     1.7510    -2.2780 hc         1 C51       0.048200
     38 H34          0.6040     0.1220     0.2950 hc         1 C51       0.043200
     39 H33          1.3990    -0.3910    -1.1720 hc         1 C51       0.043200
     40 H35          3.0470     1.4550    -0.9340 hc         1 C51       0.060700
     41 H36          1.5980     2.1590     1.6440 hc         1 C51       0.043200
     42 H37          3.0800     2.8820     1.0610 hc         1 C51       0.043200
     43 H38          1.9260     3.6720    -0.9850 hc         1 C51       0.048200
     44 H39          1.1540     4.2920     0.4500 hc         1 C51       0.048200
     45 H40         -0.5710     1.8500     1.2620 hc         1 C51       0.052700
     46 H43         -2.1510     3.6340     1.9960 hc         1 C51       0.045700
     47 H42         -0.5340     4.2630     1.7450 hc         1 C51       0.045700
     48 H41         -1.7850     4.5590     0.5380 hc         1 C51       0.045700
     49 H44         -1.8990     0.2780     1.0630 hn         1 C51       0.318500
     50 H45         -4.5680     1.0670    -1.4240 ha         1 C51       0.153000
     51 H51          6.2820    -3.3670     0.7200 ha         1 C51       0.150000
     52 H53          5.2330    -1.7040    -3.0910 ha         1 C51       0.133000
     53 H54          3.7520    -0.1070    -2.0170 ha         1 C51       0.132000
     54 H49          2.6210     0.6600     2.6570 ha         1 C51       0.137000
@<TRIPOS>BOND
     1     1     2 ar  
     2     1    21 1   
     3     1    23 ar  
     4     2     3 ar  
     5     2    30 1   
     6     3     4 ar  
     7     3    31 1   
     8     4     5 ar  
     9     4     6 1   
    10     5    23 ar  
    11     5    32 1   
    12     6    24 3   
    13     7     8 ar  
    14     7    17 ar  
    15     7    54 1   
    16     8    25 ar  
    17     8    33 1   
    18     9    25 ar  
    19     9    26 ar  
    20     9    27 ar  
    21    10    27 ar  
    22    10    28 ar  
    23    10    34 1   
    24    11    12 1   
    25    11    16 1   
    26    11    18 1   
    27    11    35 1   
    28    12    13 1   
    29    12    36 1   
    30    12    37 1   
    31    13    14 1   
    32    13    38 1   
    33    13    39 1   
    34    14    15 1   
    35    14    17 1   
    36    14    40 1   
    37    15    16 1   
    38    15    41 1   
    39    15    42 1   
    40    16    43 1   
    41    16    44 1   
    42    17    26 ar  
    43    18    19 1   
    44    18    20 1   
    45    18    45 1   
    46    19    46 1   
    47    19    47 1   
    48    19    48 1   
    49    20    21 1   
    50    20    22 2   
    51    21    49 1   
    52    23    50 1   
    53    26    29 ar  
    54    27    51 1   
    55    28    29 ar  
    56    28    52 1   
    57    29    53 1   
@<TRIPOS>SUBSTRUCTURE
     1 C51         1 TEMP              0 ****  ****    0 ROOT
