@<TRIPOS>MOLECULE
C51
   54    57     1     0     0
SMALL
No Charge or Current Charge


@<TRIPOS>ATOM
      1 C13         -3.6290    -0.1870     0.0290 ca         1 C51       0.007000
      2 C18         -3.5960    -1.4260     0.6960 ca         1 C51      -0.162000
      3 C17         -4.5840    -2.3990     0.4590 ca         1 C51      -0.040500
      4 C16         -5.6220    -2.1410    -0.4540 ca         1 C51      -0.054000
      5 C15         -5.6640    -0.9050    -1.1250 ca         1 C51      -0.040500
      6 C19         -6.6330    -3.1320    -0.6990 cg         1 C51       0.330000
      7 C21          3.2760    -0.0240     2.1190 ca         1 C51      -0.174000
      8 C22          4.0230    -1.0060     2.7790 ca         1 C51       0.351900
      9 C24          4.8690    -1.8320     0.7830 ca         1 C51       0.266000
     10 C27          5.7860    -2.7640    -1.2880 ca         1 C51      -0.102000
     11 C1           0.0810     2.9040    -0.6330 c6         1 C51      -0.050700
     12 C2           0.4230     1.6270    -1.4620 c6         1 C51      -0.076900
     13 C3           1.1940     0.5700    -0.6260 c6         1 C51      -0.069900
     14 C4           2.5030     1.1630    -0.0320 c6         1 C51      -0.025400
     15 C5           2.1760     2.4390     0.8020 c6         1 C51      -0.069900
     16 C6           1.4080     3.4820    -0.0520 c6         1 C51      -0.076900
     17 C7           3.3250     0.0770     0.7120 ca         1 C51      -0.018300
     18 C8          -1.0380     2.6520     0.4500 c3         1 C51      -0.133700
     19 C9          -1.4390     3.9180     1.2530 c3         1 C51      -0.086100
     20 C10         -2.3090     2.0130    -0.1610 c          1 C51       0.608100
     21 N11         -2.5940     0.7420     0.3220 ns         1 C51      -0.147000
     22 O12         -2.9790     2.5970    -1.0060 o          1 C51      -0.572100
     23 C14         -4.6750     0.0660    -0.8860 ca         1 C51      -0.162000
     24 N20         -7.4570    -3.9370    -0.8880 n1         1 C51      -0.459000
     25 N23          4.8060    -1.8900     2.1320 nb         1 C51      -0.659000
     26 C25          4.1420    -0.8680     0.0250 ca         1 C51      -0.075000
     27 C26          5.6820    -2.7650     0.1110 ca         1 C51      -0.081000
     28 C28          5.0690    -1.8240    -2.0360 ca         1 C51      -0.106000
     29 C29          4.2530    -0.8830    -1.3890 ca         1 C51      -0.098000
     30 H48         -2.7990    -1.6420     1.4040 ha         1 C51       0.135000
     31 H47         -4.5390    -3.3510     0.9850 ha         1 C51       0.126500
     32 H46         -6.4640    -0.6940    -1.8330 ha         1 C51       0.126500
     33 H50          3.9920    -1.0890     3.8640 h4         1 C51       0.018100
     34 H52          6.4190    -3.4940    -1.7890 ha         1 C51       0.118000
     35 H30         -0.3340     3.6500    -1.3260 hc         1 C51       0.069700
     36 H32         -0.4820     1.1770    -1.8910 hc         1 C51       0.048200
     37 H31          1.0390     1.9140    -2.3250 hc         1 C51       0.048200
     38 H34          0.5590     0.1820     0.1810 hc         1 C51       0.043200
     39 H33          1.4260    -0.2930    -1.2650 hc         1 C51       0.043200
     40 H35          3.1180     1.5280    -0.8650 hc         1 C51       0.060700
     41 H36          1.5730     2.1920     1.6840 hc         1 C51       0.043200
     42 H37          3.1080     2.8850     1.1760 hc         1 C51       0.043200
     43 H38          2.0520     3.8080    -0.8810 hc         1 C51       0.048200
     44 H39          1.2200     4.3880     0.5380 hc         1 C51       0.048200
     45 H40         -0.6520     1.9390     1.1870 hc         1 C51       0.052700
     46 H43         -2.2750     3.6970     1.9280 hc         1 C51       0.045700
     47 H42         -0.6090     4.2780     1.8720 hc         1 C51       0.045700
     48 H41         -1.7480     4.7280     0.5810 hc         1 C51       0.045700
     49 H44         -1.9360     0.4090     1.0140 hn         1 C51       0.152000
     50 H45         -4.7440     1.0070    -1.4230 ha         1 C51       0.135000
     51 H51          6.2380    -3.5000     0.6860 ha         1 C51       0.132000
     52 H53          5.1430    -1.8230    -3.1220 ha         1 C51       0.115000
     53 H54          3.7120    -0.1790    -2.0130 ha         1 C51       0.114000
     54 H49          2.6670     0.6380     2.7230 ha         1 C51       0.119000
@<TRIPOS>BOND
     1     1     2 ar  
     2     1    21 1   
     3     1    23 ar  
     4     2     3 ar  
     5     2    30 1   
     6     3     4 ar  
     7     3    31 1   
     8     4     5 ar  
     9     4     6 1   
    10     5    23 ar  
    11     5    32 1   
    12     6    24 3   
    13     7     8 ar  
    14     7    17 ar  
    15     7    54 1   
    16     8    25 ar  
    17     8    33 1   
    18     9    25 ar  
    19     9    26 ar  
    20     9    27 ar  
    21    10    27 ar  
    22    10    28 ar  
    23    10    34 1   
    24    11    12 1   
    25    11    16 1   
    26    11    18 1   
    27    11    35 1   
    28    12    13 1   
    29    12    36 1   
    30    12    37 1   
    31    13    14 1   
    32    13    38 1   
    33    13    39 1   
    34    14    15 1   
    35    14    17 1   
    36    14    40 1   
    37    15    16 1   
    38    15    41 1   
    39    15    42 1   
    40    16    43 1   
    41    16    44 1   
    42    17    26 ar  
    43    18    19 1   
    44    18    20 1   
    45    18    45 1   
    46    19    46 1   
    47    19    47 1   
    48    19    48 1   
    49    20    21 1   
    50    20    22 2   
    51    21    49 1   
    52    23    50 1   
    53    26    29 ar  
    54    27    51 1   
    55    28    29 ar  
    56    28    52 1   
    57    29    53 1   
@<TRIPOS>SUBSTRUCTURE
     1 C51         1 TEMP              0 ****  ****    0 ROOT
