@<TRIPOS>MOLECULE
C52
   44    47     1     0     0
SMALL
abcg2


@<TRIPOS>ATOM
      1 C8          -2.8180    -0.1730     0.7290 ca         1 C52      -0.019000
      2 C3          -4.0360     0.4740     0.4610 ca         1 C52      -0.203000
      3 C4          -4.7980     1.1450     1.4470 ca         1 C52       0.178900
      4 N2          -5.9200     1.7440     1.1920 nb         1 C52      -0.232000
      5 C1          -6.3560     1.7090    -0.1020 ca         1 C52       0.384900
      6 N3          -7.4990     2.3760    -0.3380 nv         1 C52      -1.064900
      7 N1          -5.7500     1.1130    -1.1060 nb         1 C52      -0.262000
      8 C2          -4.5850     0.4880    -0.8400 ca         1 C52       0.089000
      9 C5          -3.8760    -0.1760    -1.8640 ca         1 C52      -0.118000
     10 C6          -2.6930    -0.8060    -1.5790 ca         1 C52      -0.060000
     11 C7          -2.1410    -0.8200    -0.2760 ca         1 C52      -0.061800
     12 C9          -0.8620    -1.5180    -0.0240 cc         1 C52      -0.167400
     13 C10          0.2700    -0.6840     0.3170 c          1 C52       0.561200
     14 O1           0.2350     0.5340     0.4400 o          1 C52      -0.533000
     15 C13         -0.7410    -2.8790    -0.1260 cd         1 C52       0.033800
     16 C14         -1.9020    -3.7620    -0.4670 c3         1 C52      -0.062900
     17 C12          0.5250    -3.4850     0.0970 cd         1 C52      -0.296000
     18 C11          1.5890    -2.7130     0.4050 cc         1 C52      -0.024400
     19 N4           1.4720    -1.3620     0.5070 n          1 C52      -0.205200
     20 C15          2.6260    -0.5920     0.8400 ca         1 C52       0.018600
     21 C16          3.3270     0.0520    -0.1630 ca         1 C52      -0.039000
     22 C20          3.0430    -0.5180     2.1600 ca         1 C52      -0.070000
     23 C19          4.1800     0.2080     2.4760 ca         1 C52      -0.112000
     24 C18          4.8940     0.8610     1.4810 ca         1 C52      -0.051000
     25 C17          4.4650     0.7810     0.1630 ca         1 C52      -0.192300
     26 C21          5.2150     1.4540    -0.9440 c3         1 C52       0.358300
     27 F2           5.6970     0.5640    -1.8240 f          1 C52      -0.111000
     28 F3           4.4280     2.2870    -1.6390 f          1 C52      -0.111000
     29 F1           6.2520     2.1690    -0.5020 f          1 C52      -0.111000
     30 H8          -2.4310    -0.1680     1.7410 ha         1 C52       0.119000
     31 H4          -4.4430     1.1690     2.4740 h4         1 C52       0.022100
     32 HN3         -8.0620     2.6810     0.4360 hn         1 C52       0.498000
     33 HN3A        -7.9490     2.2810    -1.2320 hn         1 C52       0.498000
     34 H5          -4.2760    -0.1750    -2.8690 ha         1 C52       0.132000
     35 H6          -2.1570    -1.3060    -2.3770 ha         1 C52       0.114000
     36 H14         -1.9950    -3.8710    -1.5490 hc         1 C52       0.053033
     37 H14A        -1.7590    -4.7600    -0.0550 hc         1 C52       0.053033
     38 H14B        -2.8440    -3.3650    -0.0960 hc         1 C52       0.053033
     39 H12          0.6450    -4.5560     0.0270 ha         1 C52       0.201000
     40 H11          2.5750    -3.1190     0.5840 h4         1 C52       0.205000
     41 H16          2.9850    -0.0290    -1.1870 ha         1 C52       0.142000
     42 H20          2.4820    -1.0270     2.9340 ha         1 C52       0.130000
     43 H19          4.5130     0.2680     3.5030 ha         1 C52       0.127000
     44 H18          5.7790     1.4210     1.7480 ha         1 C52       0.135000
@<TRIPOS>BOND
     1     1     2 ar  
     2     1    11 ar  
     3     1    30 1   
     4     2     3 ar  
     5     2     8 ar  
     6     3     4 ar  
     7     3    31 1   
     8     4     5 ar  
     9     5     6 1   
    10     5     7 ar  
    11     6    32 1   
    12     6    33 1   
    13     7     8 ar  
    14     8     9 ar  
    15     9    10 ar  
    16     9    34 1   
    17    10    11 ar  
    18    10    35 1   
    19    11    12 1   
    20    12    13 1   
    21    12    15 2   
    22    13    14 2   
    23    13    19 1   
    24    15    16 1   
    25    15    17 1   
    26    16    36 1   
    27    16    37 1   
    28    16    38 1   
    29    17    18 2   
    30    17    39 1   
    31    18    19 1   
    32    18    40 1   
    33    19    20 1   
    34    20    21 ar  
    35    20    22 ar  
    36    21    25 ar  
    37    21    41 1   
    38    22    23 ar  
    39    22    42 1   
    40    23    24 ar  
    41    23    43 1   
    42    24    25 ar  
    43    24    44 1   
    44    25    26 1   
    45    26    27 1   
    46    26    28 1   
    47    26    29 1   
@<TRIPOS>SUBSTRUCTURE
     1 C52         1 TEMP              0 ****  ****    0 ROOT
