@<TRIPOS>MOLECULE
C52
   44    47     1     0     0
SMALL
No Charge or Current Charge


@<TRIPOS>ATOM
      1 C8          -2.9570    -0.1950     0.6700 ca         1 C52      -0.019000
      2 C3          -4.1650     0.4290     0.3080 ca         1 C52      -0.203000
      3 C4          -5.0150     0.9920     1.2800 ca         1 C52       0.178900
      4 N2          -6.1720     1.5910     0.9390 nb         1 C52      -0.232000
      5 C1          -6.4550     1.6160    -0.3710 ca         1 C52       0.384900
      6 N3          -7.6200     2.2150    -0.7240 nv         1 C52      -1.064900
      7 N1          -5.7230     1.1140    -1.3780 nb         1 C52      -0.262000
      8 C2          -4.5610     0.5110    -1.0470 ca         1 C52       0.089000
      9 C5          -3.7240    -0.0440    -2.0310 ca         1 C52      -0.118000
     10 C6          -2.5160    -0.6700    -1.6740 ca         1 C52      -0.060000
     11 C7          -2.1310    -0.7520    -0.3230 ca         1 C52      -0.061800
     12 C9          -0.8750    -1.4040     0.0470 cc         1 C52      -0.167400
     13 C10          0.3660    -0.6080     0.2120 c          1 C52       0.561200
     14 O1           0.3670     0.6120     0.0840 o          1 C52      -0.533000
     15 C13         -0.9450    -2.7740     0.2500 cd         1 C52       0.033800
     16 C14         -2.2150    -3.5830     0.1000 c3         1 C52      -0.062900
     17 C12          0.2760    -3.4290     0.6270 cd         1 C52      -0.296000
     18 C11          1.4500    -2.7200     0.7590 cc         1 C52      -0.024400
     19 N4           1.5320    -1.3400     0.5540 n          1 C52      -0.205200
     20 C15          2.7860    -0.6650     0.8390 ca         1 C52       0.018600
     21 C16          3.2770     0.3290    -0.0400 ca         1 C52      -0.039000
     22 C20          3.6340    -1.1140     1.8760 ca         1 C52      -0.070000
     23 C19          4.8940    -0.5290     2.0780 ca         1 C52      -0.112000
     24 C18          5.3460     0.4910     1.2280 ca         1 C52      -0.051000
     25 C17          4.5400     0.9290     0.1570 ca         1 C52      -0.192300
     26 C21          5.0360     2.0110    -0.8090 c3         1 C52       0.358300
     27 F2           5.5970     1.4650    -1.9110 f          1 C52      -0.111000
     28 F3           4.0330     2.8140    -1.2330 f          1 C52      -0.111000
     29 F1           5.9670     2.8190    -0.2520 f          1 C52      -0.111000
     30 H8          -2.6610    -0.2540     1.7150 ha         1 C52       0.119000
     31 H4          -4.7700     0.9630     2.3410 h4         1 C52       0.022100
     32 HN3         -8.3070     2.4040     0.0020 hn         1 C52       0.498000
     33 HN3A        -7.9790     2.0640    -1.6640 hn         1 C52       0.498000
     34 H5          -4.0110     0.0100    -3.0780 ha         1 C52       0.132000
     35 H6          -1.8790    -1.0950    -2.4460 ha         1 C52       0.114000
     36 H14         -2.5950    -3.5340    -0.9270 hc         1 C52       0.053033
     37 H14A        -2.0530    -4.6410     0.3380 hc         1 C52       0.053033
     38 H14B        -3.0010    -3.2140     0.7690 hc         1 C52       0.053033
     39 H12          0.2850    -4.5040     0.7940 ha         1 C52       0.201000
     40 H11          2.4050    -3.1780     0.9960 h4         1 C52       0.205000
     41 H16          2.6800     0.6260    -0.8990 ha         1 C52       0.142000
     42 H20          3.3080    -1.8950     2.5590 ha         1 C52       0.130000
     43 H19          5.5260    -0.8700     2.8950 ha         1 C52       0.127000
     44 H18          6.3300     0.9250     1.3970 ha         1 C52       0.135000
@<TRIPOS>BOND
     1     1     2 ar  
     2     1    11 ar  
     3     1    30 1   
     4     2     3 ar  
     5     2     8 ar  
     6     3     4 ar  
     7     3    31 1   
     8     4     5 ar  
     9     5     6 1   
    10     5     7 ar  
    11     6    32 1   
    12     6    33 1   
    13     7     8 ar  
    14     8     9 ar  
    15     9    10 ar  
    16     9    34 1   
    17    10    11 ar  
    18    10    35 1   
    19    11    12 1   
    20    12    13 1   
    21    12    15 2   
    22    13    14 2   
    23    13    19 1   
    24    15    16 1   
    25    15    17 1   
    26    16    36 1   
    27    16    37 1   
    28    16    38 1   
    29    17    18 2   
    30    17    39 1   
    31    18    19 1   
    32    18    40 1   
    33    19    20 1   
    34    20    21 ar  
    35    20    22 ar  
    36    21    25 ar  
    37    21    41 1   
    38    22    23 ar  
    39    22    42 1   
    40    23    24 ar  
    41    23    43 1   
    42    24    25 ar  
    43    24    44 1   
    44    25    26 1   
    45    26    27 1   
    46    26    28 1   
    47    26    29 1   
@<TRIPOS>SUBSTRUCTURE
     1 C52         1 TEMP              0 ****  ****    0 ROOT
