@<TRIPOS>MOLECULE
C53
   21    22     1     0     0
SMALL
abcg2


@<TRIPOS>ATOM
      1 C2          -2.7260    -1.1860    -0.4180 ca         1 C53      -0.144000
      2 C3          -3.9950    -0.6380    -0.5090 ca         1 C53      -0.073000
      3 C4          -4.2410     0.5760     0.1120 ca         1 C53      -0.154000
      4 C5          -3.2000     1.1820     0.8030 ca         1 C53       0.345900
      5 N1          -1.9800     0.6720     0.8850 nb         1 C53      -0.638000
      6 C1          -1.7410    -0.4840     0.2730 ca         1 C53       0.381800
      7 C6          -0.3960    -1.0710     0.3930 ce         1 C53      -0.170800
      8 C7           0.7690    -0.4620     0.1570 cd         1 C53      -0.065600
      9 S1           2.3220    -1.2320     0.4590 ss         1 C53      -0.264800
     10 C8           0.9760     0.8820    -0.4570 c          1 C53       0.591200
     11 O1           0.1170     1.6190    -0.8770 o          1 C53      -0.477000
     12 N2           2.3150     1.1430    -0.5230 ns         1 C53      -0.440400
     13 C9           3.2150     0.1860    -0.1140 cc         1 C53       0.536800
     14 N3           4.4610     0.3510    -0.1670 n2         1 C53      -0.790100
     15 H2          -2.4970    -2.1380    -0.8780 ha         1 C53       0.124000
     16 H3          -4.7770    -1.1530    -1.0510 ha         1 C53       0.121000
     17 H4          -5.2160     1.0410     0.0770 ha         1 C53       0.126000
     18 H5          -3.3640     2.1220     1.3180 h4         1 C53       0.023100
     19 H6C1        -0.3700    -2.1080     0.7140 ha         1 C53       0.193000
     20 H3N1         4.9810    -0.4510     0.1660 hn         1 C53       0.420400
     21 H2N          2.6570     2.0070    -0.9230 hn         1 C53       0.355500
@<TRIPOS>BOND
     1     1     2 ar  
     2     1     6 ar  
     3     1    15 1   
     4     2     3 ar  
     5     2    16 1   
     6     3     4 ar  
     7     3    17 1   
     8     4     5 ar  
     9     4    18 1   
    10     5     6 ar  
    11     6     7 1   
    12     7     8 2   
    13     7    19 1   
    14     8     9 1   
    15     8    10 1   
    16     9    13 1   
    17    10    11 2   
    18    10    12 1   
    19    12    13 1   
    20    12    21 1   
    21    13    14 2   
    22    14    20 1   
@<TRIPOS>SUBSTRUCTURE
     1 C53         1 TEMP              0 ****  ****    0 ROOT
