@<TRIPOS>MOLECULE
C53
   21    22     1     0     0
SMALL
No Charge or Current Charge


@<TRIPOS>ATOM
      1 C2          -2.8360    -1.3620    -0.0860 ca         1 C53      -0.144000
      2 C3          -4.1730    -0.9370    -0.0280 ca         1 C53      -0.073000
      3 C4          -4.4230     0.4370     0.0950 ca         1 C53      -0.154000
      4 C5          -3.3340     1.3220     0.1550 ca         1 C53       0.345900
      5 N1          -2.0470     0.9090     0.1000 nb         1 C53      -0.638000
      6 C1          -1.7950    -0.4110    -0.0200 ca         1 C53       0.381800
      7 C6          -0.3760    -0.8770    -0.0810 ce         1 C53      -0.170800
      8 C7           0.8600    -0.2450    -0.0760 cd         1 C53      -0.065600
      9 S1           2.3010    -1.2910    -0.1540 ss         1 C53      -0.264800
     10 C8           1.2180     1.2100    -0.0190 c          1 C53       0.591200
     11 O1           0.4980     2.1920     0.0340 o          1 C53      -0.477000
     12 N2           2.5710     1.2860    -0.0410 ns         1 C53      -0.440400
     13 C9           3.2870     0.1490    -0.1070 cc         1 C53       0.536800
     14 N3           4.5650     0.0540    -0.1360 n2         1 C53      -0.790100
     15 H2          -2.6080    -2.4200    -0.1820 ha         1 C53       0.124000
     16 H3          -4.9910    -1.6530    -0.0780 ha         1 C53       0.121000
     17 H4          -5.4390     0.8180     0.1440 ha         1 C53       0.126000
     18 H5          -3.4960     2.3950     0.2520 h4         1 C53       0.023100
     19 H6C1        -0.3050    -1.9620    -0.1350 ha         1 C53       0.193000
     20 H3N1         4.8140    -0.9450    -0.1860 hn         1 C53       0.420400
     21 H2N          3.0190     2.1880    -0.0110 hn         1 C53       0.355500
@<TRIPOS>BOND
     1     1     2 ar  
     2     1     6 ar  
     3     1    15 1   
     4     2     3 ar  
     5     2    16 1   
     6     3     4 ar  
     7     3    17 1   
     8     4     5 ar  
     9     4    18 1   
    10     5     6 ar  
    11     6     7 1   
    12     7     8 2   
    13     7    19 1   
    14     8     9 1   
    15     8    10 1   
    16     9    13 1   
    17    10    11 2   
    18    10    12 1   
    19    12    13 1   
    20    12    21 1   
    21    13    14 2   
    22    14    20 1   
@<TRIPOS>SUBSTRUCTURE
     1 C53         1 TEMP              0 ****  ****    0 ROOT
