@<TRIPOS>MOLECULE
C54
   15    15     1     0     0
SMALL
No Charge or Current Charge


@<TRIPOS>ATOM
      1 C           -1.4420    -0.0700    -0.0230 c          1 C54       0.727000
      2 O           -1.6480    -0.4620     1.1170 o          1 C54      -0.735000
      3 CA           0.0170     0.2070    -0.4960 c5         1 C54      -0.176500
      4 CB           0.9000    -1.0900    -0.4100 c5         1 C54      -0.058400
      5 CG           2.3180    -0.5170    -0.0890 c5         1 C54      -0.044200
      6 CD           2.0220     0.8020     0.5860 c2         1 C54      -0.320200
      7 CN           0.7670     1.1960     0.3760 c2         1 C54      -0.140200
      8 HA          -0.0150     0.5790    -1.5270 hc         1 C54       0.040700
      9 HB2          0.5720    -1.7480     0.4020 hc         1 C54       0.038700
     10 HB3          0.8780    -1.6810    -1.3320 hc         1 C54       0.038700
     11 HG2          2.8880    -1.1900     0.5620 hc         1 C54       0.014200
     12 HG3          2.9100    -0.3590    -0.9990 hc         1 C54       0.014200
     13 HD2          2.7400     1.3660     1.1860 ha         1 C54       0.152000
     14 OXT         -2.3580     0.1510    -0.8010 o          1 C54      -0.735000
     15 HN           0.3390     2.1180     0.7800 ha         1 C54       0.183000
@<TRIPOS>BOND
     1     1     2 1   
     2     1     3 1   
     3     1    14 1   
     4     3     4 1   
     5     3     7 1   
     6     3     8 1   
     7     4     5 1   
     8     4     9 1   
     9     4    10 1   
    10     5     6 1   
    11     5    11 1   
    12     5    12 1   
    13     6     7 2   
    14     6    13 1   
    15     7    15 1   
@<TRIPOS>SUBSTRUCTURE
     1 C54         1 TEMP              0 ****  ****    0 ROOT
