@<TRIPOS>MOLECULE
C54
   15    15     1     0     0
SMALL
abcg2


@<TRIPOS>ATOM
      1 C           -1.4540    -0.1080     0.0020 c          1 C54       0.727000
      2 O           -1.8860    -1.2760     0.0570 o          1 C54      -0.735000
      3 CA          -0.0040     0.0700    -0.4880 c5         1 C54      -0.176500
      4 CB           0.9440    -1.1090    -0.1970 c5         1 C54      -0.058400
      5 CG           2.3270    -0.4810     0.0540 c5         1 C54      -0.044200
      6 CD           1.9930     0.9430     0.3990 c2         1 C54      -0.320200
      7 CN           0.7330     1.2420     0.0990 c2         1 C54      -0.140200
      8 HA          -0.0800     0.2230    -1.5770 hc         1 C54       0.040700
      9 HB2          0.6070    -1.6250     0.7040 hc         1 C54       0.038700
     10 HB3          0.9610    -1.8450    -1.0000 hc         1 C54       0.038700
     11 HG2          2.8800    -0.9930     0.8460 hc         1 C54       0.014200
     12 HG3          2.9650    -0.5230    -0.8360 hc         1 C54       0.014200
     13 HD2          2.7220     1.6340     0.8060 ha         1 C54       0.152000
     14 OXT         -2.0970     0.9340     0.2420 o          1 C54      -0.735000
     15 HN           0.2760     2.2150     0.2220 ha         1 C54       0.183000
@<TRIPOS>BOND
     1     1     2 1   
     2     1     3 1   
     3     1    14 1   
     4     3     4 1   
     5     3     7 1   
     6     3     8 1   
     7     4     5 1   
     8     4     9 1   
     9     4    10 1   
    10     5     6 1   
    11     5    11 1   
    12     5    12 1   
    13     6     7 2   
    14     6    13 1   
    15     7    15 1   
@<TRIPOS>SUBSTRUCTURE
     1 C54         1 TEMP              0 ****  ****    0 ROOT
