@<TRIPOS>MOLECULE
C56
   51    52     1     0     0
SMALL
No Charge or Current Charge


@<TRIPOS>ATOM
      1 O16         -1.1390    -1.5850    -1.3020 o          1 C56      -0.583100
      2 C15         -0.6900    -0.9990    -0.3280 c          1 C56       0.630700
      3 C2           0.7750    -0.6830    -0.1530 ca         1 C56      -0.245600
      4 C3           1.7740    -1.5240    -0.6910 ca         1 C56       0.267100
      5 O13          1.4030    -2.6840    -1.3430 os         1 C56      -0.310100
      6 C14          2.3540    -3.5990    -1.9140 c3         1 C56       0.144900
      7 C4           3.1330    -1.1910    -0.5270 ca         1 C56      -0.322000
      8 C5           3.5140    -0.0380     0.1610 ca         1 C56       0.462000
      9 N10          4.8830     0.2680     0.2550 nh         1 C56      -0.797400
     10 C12          5.8440    -0.7220     0.7870 c3         1 C56       0.204100
     11 C11          5.4400     1.4640    -0.4150 c3         1 C56       0.204100
     12 C6           2.5290     0.7920     0.7040 ca         1 C56      -0.307200
     13 N7           2.9060     1.9950     1.4600 no         1 C56       0.705200
     14 O9           2.3520     3.0530     1.1410 o          1 C56      -0.413500
     15 O8           3.5120     1.8320     2.5260 o          1 C56      -0.413500
     16 C1           1.1670     0.4810     0.5440 ca         1 C56       0.040000
     17 N17         -1.5210    -0.5190     0.6640 ns         1 C56      -0.504900
     18 C18         -2.9890    -0.6240     0.6620 c3         1 C56       0.069000
     19 C05         -3.7300     0.6590     0.1630 c5         1 C56       0.177500
     20 C06         -3.4850     1.0280    -1.3240 c5         1 C56      -0.076400
     21 C07         -4.4220     0.0400    -2.0810 c5         1 C56      -0.086400
     22 C08         -5.5160    -0.3230    -1.0320 c5         1 C56       0.173800
     23 N09         -5.2140     0.5770     0.1130 n3         1 C56      -0.750600
     24 C10         -5.9080     0.2840     1.3870 c3         1 C56       0.187800
     25 C13         -7.4410     0.4050     1.3010 c3         1 C56      -0.091100
     26 H17         -1.0740    -0.0820     1.4590 hn         1 C56       0.314500
     27 H1           0.4220     1.1620     0.9540 ha         1 C56       0.150000
     28 H4           3.9140    -1.8150    -0.9430 ha         1 C56       0.129000
     29 H141         3.0240    -3.9990    -1.1410 h1         1 C56       0.048700
     30 H142         1.8340    -4.4450    -2.3810 h1         1 C56       0.048700
     31 H143         2.9580    -3.1050    -2.6850 h1         1 C56       0.048700
     32 H121         6.2990    -1.2970    -0.0300 h1         1 C56       0.047200
     33 H122         6.6420    -0.2200     1.3500 h1         1 C56       0.047200
     34 H123         5.3410    -1.4210     1.4690 h1         1 C56       0.047200
     35 H111         4.6720     1.9620    -1.0230 h1         1 C56       0.047200
     36 H112         5.8110     2.1830     0.3270 h1         1 C56       0.047200
     37 H113         6.2670     1.1850    -1.0820 h1         1 C56       0.047200
     38 H181        -3.2860    -1.4900     0.0570 h1         1 C56       0.054700
     39 H182        -3.3050    -0.8280     1.6930 h1         1 C56       0.054700
     40 H05         -3.4100     1.4870     0.8110 h1         1 C56       0.059700
     41 H061        -3.7800     2.0670    -1.5150 hc         1 C56       0.053700
     42 H062        -2.4360     0.9370    -1.6260 hc         1 C56       0.053700
     43 H071        -4.8500     0.4990    -2.9790 hc         1 C56       0.048200
     44 H072        -3.8830    -0.8580    -2.4050 hc         1 C56       0.048200
     45 H081        -6.5280    -0.1560    -1.4270 h1         1 C56       0.036200
     46 H082        -5.4420    -1.3800    -0.7420 h1         1 C56       0.036200
     47 H101        -5.6590    -0.7290     1.7300 h1         1 C56       0.027700
     48 H102        -5.5570     0.9830     2.1590 h1         1 C56       0.027700
     49 H131        -7.8580    -0.3430     0.6170 hc         1 C56       0.037367
     50 H132        -7.8870     0.2460     2.2900 hc         1 C56       0.037367
     51 H133        -7.7300     1.4020     0.9500 hc         1 C56       0.037367
@<TRIPOS>BOND
     1     1     2 2   
     2     2     3 1   
     3     2    17 1   
     4     3     4 ar  
     5     3    16 ar  
     6     4     5 1   
     7     4     7 ar  
     8     5     6 1   
     9     6    29 1   
    10     6    30 1   
    11     6    31 1   
    12     7     8 ar  
    13     7    28 1   
    14     8     9 1   
    15     8    12 ar  
    16     9    10 1   
    17     9    11 1   
    18    10    32 1   
    19    10    33 1   
    20    10    34 1   
    21    11    35 1   
    22    11    36 1   
    23    11    37 1   
    24    12    13 1   
    25    12    16 ar  
    26    13    14 1   
    27    13    15 1   
    28    16    27 1   
    29    17    18 1   
    30    17    26 1   
    31    18    19 1   
    32    18    38 1   
    33    18    39 1   
    34    19    20 1   
    35    19    23 1   
    36    19    40 1   
    37    20    21 1   
    38    20    41 1   
    39    20    42 1   
    40    21    22 1   
    41    21    43 1   
    42    21    44 1   
    43    22    23 1   
    44    22    45 1   
    45    22    46 1   
    46    23    24 1   
    47    24    25 1   
    48    24    47 1   
    49    24    48 1   
    50    25    49 1   
    51    25    50 1   
    52    25    51 1   
@<TRIPOS>SUBSTRUCTURE
     1 C56         1 TEMP              0 ****  ****    0 ROOT
