@<TRIPOS>MOLECULE
C56
   51    52     1     0     0
SMALL
abcg2


@<TRIPOS>ATOM
      1 O16         -0.8870    -1.9210    -1.6400 o          1 C56      -0.583100
      2 C15         -0.6140    -1.1520    -0.7310 c          1 C56       0.630700
      3 C2           0.7950    -0.7670    -0.4150 ca         1 C56      -0.245600
      4 C3           1.7900    -1.7430    -0.1890 ca         1 C56       0.267100
      5 O13          1.3750    -3.0070    -0.1760 os         1 C56      -0.310100
      6 C14          2.2940    -4.0430     0.1280 c3         1 C56       0.144900
      7 C4           3.1070    -1.3680    -0.0000 ca         1 C56      -0.322000
      8 C5           3.5150    -0.0190    -0.0170 ca         1 C56       0.462000
      9 N10          4.8360     0.2850     0.0460 nh         1 C56      -0.797400
     10 C12          5.7880    -0.7130     0.4850 c3         1 C56       0.204100
     11 C11          5.4220     1.3650    -0.7250 c3         1 C56       0.204100
     12 C6           2.4850     0.9450    -0.1460 ca         1 C56      -0.307200
     13 N7           2.6880     2.3420     0.1150 no         1 C56       0.705200
     14 O9           1.9510     3.1430    -0.4260 o          1 C56      -0.413500
     15 O8           3.5470     2.6670     0.9070 o          1 C56      -0.413500
     16 C1           1.1660     0.5540    -0.3780 ca         1 C56       0.040000
     17 N17         -1.5400    -0.5500     0.0320 ns         1 C56      -0.504900
     18 C18         -2.9640    -0.7120    -0.1650 c3         1 C56       0.069000
     19 C05         -3.7170     0.4560     0.4860 c5         1 C56       0.177500
     20 C06         -3.4510     1.7800    -0.2230 c5         1 C56      -0.076400
     21 C07         -4.4420     1.7570    -1.3930 c5         1 C56      -0.086400
     22 C08         -5.5660     0.8110    -0.9320 c5         1 C56       0.173800
     23 N09         -5.1610     0.3610     0.3930 n3         1 C56      -0.750600
     24 C10         -5.7810    -0.8580     0.8600 c3         1 C56       0.187800
     25 C13         -7.2670    -0.6760     1.1290 c3         1 C56      -0.091100
     26 H17         -1.2340    -0.0660     0.8610 hn         1 C56       0.314500
     27 H1           0.4110     1.3180    -0.5030 ha         1 C56       0.150000
     28 H4           3.8650    -2.1300     0.0900 ha         1 C56       0.129000
     29 H141         2.7480    -3.9030     1.1120 h1         1 C56       0.048700
     30 H142         1.7210    -4.9650     0.1320 h1         1 C56       0.048700
     31 H143         3.0820    -4.1200    -0.6250 h1         1 C56       0.048700
     32 H121         6.0260    -1.4460    -0.2930 h1         1 C56       0.047200
     33 H122         6.7110    -0.2090     0.7650 h1         1 C56       0.047200
     34 H123         5.4230    -1.2410     1.3650 h1         1 C56       0.047200
     35 H111         4.7030     1.8030    -1.4140 h1         1 C56       0.047200
     36 H112         5.8360     2.1520    -0.0930 h1         1 C56       0.047200
     37 H113         6.2310     0.9590    -1.3350 h1         1 C56       0.047200
     38 H181        -3.1700    -0.7560    -1.2370 h1         1 C56       0.054700
     39 H182        -3.3000    -1.6620     0.2630 h1         1 C56       0.054700
     40 H05         -3.4270     0.4990     1.5430 h1         1 C56       0.059700
     41 H061        -3.6710     2.6040     0.4580 hc         1 C56       0.053700
     42 H062        -2.4160     1.8960    -0.5460 hc         1 C56       0.053700
     43 H071        -4.8120     2.7530    -1.6340 hc         1 C56       0.048200
     44 H072        -3.9660     1.3710    -2.2950 hc         1 C56       0.048200
     45 H081        -6.5350     1.3140    -0.8880 h1         1 C56       0.036200
     46 H082        -5.6800    -0.0250    -1.6390 h1         1 C56       0.036200
     47 H101        -5.6490    -1.6910     0.1490 h1         1 C56       0.027700
     48 H102        -5.2840    -1.1580     1.7860 h1         1 C56       0.027700
     49 H131        -7.8110    -0.4050     0.2240 hc         1 C56       0.037367
     50 H132        -7.7020    -1.6020     1.5060 hc         1 C56       0.037367
     51 H133        -7.4360     0.1050     1.8710 hc         1 C56       0.037367
@<TRIPOS>BOND
     1     1     2 2   
     2     2     3 1   
     3     2    17 1   
     4     3     4 ar  
     5     3    16 ar  
     6     4     5 1   
     7     4     7 ar  
     8     5     6 1   
     9     6    29 1   
    10     6    30 1   
    11     6    31 1   
    12     7     8 ar  
    13     7    28 1   
    14     8     9 1   
    15     8    12 ar  
    16     9    10 1   
    17     9    11 1   
    18    10    32 1   
    19    10    33 1   
    20    10    34 1   
    21    11    35 1   
    22    11    36 1   
    23    11    37 1   
    24    12    13 1   
    25    12    16 ar  
    26    13    14 1   
    27    13    15 1   
    28    16    27 1   
    29    17    18 1   
    30    17    26 1   
    31    18    19 1   
    32    18    38 1   
    33    18    39 1   
    34    19    20 1   
    35    19    23 1   
    36    19    40 1   
    37    20    21 1   
    38    20    41 1   
    39    20    42 1   
    40    21    22 1   
    41    21    43 1   
    42    21    44 1   
    43    22    23 1   
    44    22    45 1   
    45    22    46 1   
    46    23    24 1   
    47    24    25 1   
    48    24    47 1   
    49    24    48 1   
    50    25    49 1   
    51    25    50 1   
    52    25    51 1   
@<TRIPOS>SUBSTRUCTURE
     1 C56         1 TEMP              0 ****  ****    0 ROOT
