@<TRIPOS>MOLECULE
C57
   51    52     1     0     0
SMALL
bcc


@<TRIPOS>ATOM
      1 O16         -1.4330    -2.1890    -0.7860 o          1 C57      -0.579100
      2 C15         -1.0310    -1.4560     0.1050 c          1 C57       0.709700
      3 C2           0.3660    -0.9230     0.1030 ca         1 C57      -0.241600
      4 C3           1.4810    -1.7730    -0.0560 ca         1 C57       0.267100
      5 O13          1.2230    -3.0780    -0.0940 os         1 C57      -0.283900
      6 C14          2.2970    -4.0010    -0.1670 c3         1 C57       0.121700
      7 C4           2.7550    -1.2430    -0.1620 ca         1 C57      -0.342000
      8 C5           3.0030     0.1430    -0.1080 ca         1 C57       0.322600
      9 N10          4.2530     0.6130    -0.3490 nh         1 C57      -0.660000
     10 C12          5.3870    -0.2850    -0.3050 c3         1 C57       0.205600
     11 C11          4.4910     1.8340    -1.0940 c3         1 C57       0.205600
     12 C6           1.8820     0.9670     0.1590 ca         1 C57      -0.309200
     13 N7           1.9970     2.3440     0.5500 no         1 C57       0.326200
     14 O9           1.0510     3.0800     0.3520 o          1 C57      -0.226500
     15 O8           3.0070     2.7050     1.1170 o          1 C57      -0.226500
     16 C1           0.5980     0.4240     0.2180 ca         1 C57       0.017000
     17 N17         -1.7730    -1.0590     1.1520 ns         1 C57      -0.561900
     18 C18         -3.1900    -1.2930     1.2700 c3         1 C57       0.108000
     19 C07         -5.6810    -0.5470    -0.6200 c5         1 C57      -0.091400
     20 C06         -5.5080    -0.3880     0.8870 c5         1 C57      -0.095400
     21 C05         -4.0240    -0.0320     1.0190 c5         1 C57       0.166500
     22 N09         -3.6550     0.5950    -0.2500 n3         1 C57      -0.747600
     23 C10         -3.0160     1.8860    -0.1400 c3         1 C57       0.187800
     24 C08         -4.7970     0.5700    -1.1530 c5         1 C57       0.178800
     25 C13         -2.3770     2.3330    -1.4440 c3         1 C57      -0.094100
     26 H1          -0.2390     1.0860     0.3930 ha         1 C57       0.169000
     27 H17         -1.3230    -0.5240     1.8770 hn         1 C57       0.307500
     28 H4           3.5850    -1.9050    -0.3540 ha         1 C57       0.146000
     29 H141         2.9990    -3.8690     0.6590 h1         1 C57       0.048367
     30 H142         1.8520    -4.9900    -0.1010 h1         1 C57       0.048367
     31 H143         2.8370    -3.9210    -1.1130 h1         1 C57       0.048367
     32 H121         5.4870    -0.8880    -1.2130 h1         1 C57       0.046533
     33 H122         6.2930     0.3090    -0.1970 h1         1 C57       0.046533
     34 H123         5.3270    -0.9480     0.5560 h1         1 C57       0.046533
     35 H111         3.5700     2.2400    -1.5070 h1         1 C57       0.046533
     36 H112         4.9800     2.6020    -0.4930 h1         1 C57       0.046533
     37 H113         5.1390     1.6030    -1.9420 h1         1 C57       0.046533
     38 H181        -3.4630    -2.0690     0.5550 h1         1 C57       0.058200
     39 H182        -3.4050    -1.6790     2.2700 h1         1 C57       0.058200
     40 H05         -3.8650     0.6620     1.8530 h1         1 C57       0.037700
     41 H071        -5.3160    -1.5210    -0.9530 hc         1 C57       0.053700
     42 H072        -6.7170    -0.4540    -0.9490 hc         1 C57       0.053700
     43 H061        -6.1260     0.4380     1.2470 hc         1 C57       0.047700
     44 H062        -5.7870    -1.2770     1.4550 hc         1 C57       0.047700
     45 H081        -4.4900     0.4030    -2.1880 h1         1 C57       0.037200
     46 H082        -5.3520     1.5230    -1.1300 h1         1 C57       0.037200
     47 H101        -3.7250     2.6630     0.1980 h1         1 C57       0.022200
     48 H102        -2.2440     1.8280     0.6310 h1         1 C57       0.022200
     49 H131        -1.6470     1.6000    -1.7910 hc         1 C57       0.040367
     50 H132        -3.1180     2.4700    -2.2330 hc         1 C57       0.040367
     51 H133        -1.8630     3.2850    -1.3070 hc         1 C57       0.040367
@<TRIPOS>BOND
     1     1     2 2   
     2     2     3 1   
     3     2    17 1   
     4     3     4 ar  
     5     3    16 ar  
     6     4     5 1   
     7     4     7 ar  
     8     5     6 1   
     9     6    29 1   
    10     6    30 1   
    11     6    31 1   
    12     7     8 ar  
    13     7    28 1   
    14     8     9 1   
    15     8    12 ar  
    16     9    10 1   
    17     9    11 1   
    18    10    32 1   
    19    10    33 1   
    20    10    34 1   
    21    11    35 1   
    22    11    36 1   
    23    11    37 1   
    24    12    13 1   
    25    12    16 ar  
    26    13    14 1   
    27    13    15 1   
    28    16    26 1   
    29    17    18 1   
    30    17    27 1   
    31    18    21 1   
    32    18    38 1   
    33    18    39 1   
    34    19    20 1   
    35    19    24 1   
    36    19    41 1   
    37    19    42 1   
    38    20    21 1   
    39    20    43 1   
    40    20    44 1   
    41    21    22 1   
    42    21    40 1   
    43    22    23 1   
    44    22    24 1   
    45    23    25 1   
    46    23    47 1   
    47    23    48 1   
    48    24    45 1   
    49    24    46 1   
    50    25    49 1   
    51    25    50 1   
    52    25    51 1   
@<TRIPOS>SUBSTRUCTURE
     1 C57         1 TEMP              0 ****  ****    0 ROOT
