@<TRIPOS>MOLECULE
C57
   51    52     1     0     0
SMALL
No Charge or Current Charge


@<TRIPOS>ATOM
      1 O16         -0.9780    -2.6970    -0.6490 o          1 C57      -0.579100
      2 C15         -0.7190    -1.7170     0.0340 c          1 C57       0.642700
      3 C2           0.6400    -1.0640     0.0680 ca         1 C57      -0.241600
      4 C3           1.8190    -1.8180    -0.1270 ca         1 C57       0.267100
      5 O13          1.7260    -3.1860    -0.2980 os         1 C57      -0.307100
      6 C14          2.8740    -4.0290    -0.4950 c3         1 C57       0.144900
      7 C4           3.0720    -1.1750    -0.1130 ca         1 C57      -0.324000
      8 C5           3.1720     0.2030     0.0920 ca         1 C57       0.461000
      9 N10          4.4460     0.7970     0.0500 nh         1 C57      -0.798400
     10 C12          5.5440     0.2920     0.9020 c3         1 C57       0.205600
     11 C11          4.8010     1.7520    -1.0230 c3         1 C57       0.205600
     12 C6           2.0090     0.9510     0.2970 ca         1 C57      -0.309200
     13 N7           2.0920     2.3970     0.5440 no         1 C57       0.706200
     14 O9           1.3590     3.1240    -0.1370 o          1 C57      -0.416500
     15 O8           2.6460     2.7670     1.5860 o          1 C57      -0.416500
     16 C1           0.7490     0.3280     0.2780 ca         1 C57       0.035000
     17 N17         -1.6930    -1.0880     0.7800 ns         1 C57      -0.494900
     18 C18         -3.1180    -1.4520     0.7870 c3         1 C57       0.108000
     19 C07         -6.3720     0.6000     0.5330 c5         1 C57      -0.091400
     20 C06         -5.5670    -0.6500     0.9960 c5         1 C57      -0.095400
     21 C05         -4.0960    -0.2420     0.7230 c5         1 C57       0.166500
     22 N09         -4.2800     0.4210    -0.5980 n3         1 C57      -0.747600
     23 C10         -3.0640     0.9770    -1.2400 c3         1 C57       0.187800
     24 C08         -5.3590     1.4040    -0.3290 c5         1 C57       0.178800
     25 C13         -3.3180     1.6300    -2.6120 c3         1 C57      -0.094100
     26 H1          -0.1410     0.9430     0.4130 ha         1 C57       0.151000
     27 H17         -1.3970    -0.3080     1.3510 hn         1 C57       0.307500
     28 H4           3.9870    -1.7320    -0.2740 ha         1 C57       0.128000
     29 H141         3.5540    -3.9700     0.3640 h1         1 C57       0.048367
     30 H142         2.5620    -5.0740    -0.6090 h1         1 C57       0.048367
     31 H143         3.4210    -3.7380    -1.4010 h1         1 C57       0.048367
     32 H121         6.1560    -0.4360     0.3520 h1         1 C57       0.046533
     33 H122         6.1890     1.1190     1.2290 h1         1 C57       0.046533
     34 H123         5.1430    -0.1960     1.8000 h1         1 C57       0.046533
     35 H111         3.9930     1.8230    -1.7630 h1         1 C57       0.046533
     36 H112         4.9740     2.7530    -0.6050 h1         1 C57       0.046533
     37 H113         5.7100     1.4250    -1.5460 h1         1 C57       0.046533
     38 H181        -3.3410    -2.1230    -0.0520 h1         1 C57       0.058200
     39 H182        -3.3130    -2.0060     1.7150 h1         1 C57       0.058200
     40 H05         -3.7680     0.4870     1.4790 h1         1 C57       0.037700
     41 H071        -7.2550     0.3090    -0.0480 hc         1 C57       0.053700
     42 H072        -6.7260     1.1980     1.3800 hc         1 C57       0.053700
     43 H061        -5.7420    -0.8920     2.0500 hc         1 C57       0.047700
     44 H062        -5.8470    -1.5340     0.4100 hc         1 C57       0.047700
     45 H081        -5.8230     1.7820    -1.2510 h1         1 C57       0.037200
     46 H082        -4.9740     2.2670     0.2330 h1         1 C57       0.037200
     47 H101        -2.5940     1.7180    -0.5780 h1         1 C57       0.022200
     48 H102        -2.3360     0.1740    -1.4020 h1         1 C57       0.022200
     49 H131        -3.8130     0.9240    -3.2890 hc         1 C57       0.040367
     50 H132        -3.9440     2.5240    -2.5160 hc         1 C57       0.040367
     51 H133        -2.3670     1.9310    -3.0660 hc         1 C57       0.040367
@<TRIPOS>BOND
     1     1     2 2   
     2     2     3 1   
     3     2    17 1   
     4     3     4 ar  
     5     3    16 ar  
     6     4     5 1   
     7     4     7 ar  
     8     5     6 1   
     9     6    29 1   
    10     6    30 1   
    11     6    31 1   
    12     7     8 ar  
    13     7    28 1   
    14     8     9 1   
    15     8    12 ar  
    16     9    10 1   
    17     9    11 1   
    18    10    32 1   
    19    10    33 1   
    20    10    34 1   
    21    11    35 1   
    22    11    36 1   
    23    11    37 1   
    24    12    13 1   
    25    12    16 ar  
    26    13    14 1   
    27    13    15 1   
    28    16    26 1   
    29    17    18 1   
    30    17    27 1   
    31    18    21 1   
    32    18    38 1   
    33    18    39 1   
    34    19    20 1   
    35    19    24 1   
    36    19    41 1   
    37    19    42 1   
    38    20    21 1   
    39    20    43 1   
    40    20    44 1   
    41    21    22 1   
    42    21    40 1   
    43    22    23 1   
    44    22    24 1   
    45    23    25 1   
    46    23    47 1   
    47    23    48 1   
    48    24    45 1   
    49    24    46 1   
    50    25    49 1   
    51    25    50 1   
    52    25    51 1   
@<TRIPOS>SUBSTRUCTURE
     1 C57         1 TEMP              0 ****  ****    0 ROOT
