@<TRIPOS>MOLECULE
C58
   55    59     1     0     0
SMALL
No Charge or Current Charge


@<TRIPOS>ATOM
      1 C           16.4570    16.3970    15.1970 c3         1 C58       0.143500
      2 N           15.3900    15.4280    14.8270 n8         1 C58      -1.003200
      3 S           16.6810    18.2100     8.5130 ss         1 C58      -0.107900
      4 C1          17.8250    16.0580    14.5140 c3         1 C58       0.233800
      5 N1          17.7390    16.1020    13.0330 nu         1 C58      -0.931100
      6 C2          17.5890    17.2350    12.2420 ca         1 C58       0.429900
      7 N2          17.8330    18.4170    12.8370 nb         1 C58      -0.283000
      8 C3          17.7120    19.5420    12.0990 cp         1 C58       0.237500
      9 N3          17.3660    19.5670    10.7940 nb         1 C58      -0.187000
     10 C4          17.1260    18.3790    10.2130 ca         1 C58       0.172300
     11 N4          18.5440    23.3480    14.0870 nb         1 C58      -0.657000
     12 C5          17.2160    17.1760    10.8860 ca         1 C58      -0.231800
     13 C6          16.9080    16.0180    10.0530 cc         1 C58      -0.048400
     14 C7          16.6390    16.4420     8.7520 cd         1 C58      -0.075600
     15 C8          16.3140    15.5080     7.6050 c6         1 C58      -0.008200
     16 C9          16.7370    14.0560     7.9220 c6         1 C58      -0.071400
     17 C10         16.2590    13.6540     9.3340 c6         1 C58      -0.072400
     18 C11         16.9030    14.5450    10.4260 c6         1 C58      -0.019200
     19 C12         17.9970    20.8540    12.7830 cp         1 C58      -0.110500
     20 C13         18.4270    20.9260    14.1360 ca         1 C58      -0.120000
     21 C14         18.6850    22.1710    14.7370 ca         1 C58       0.315900
     22 C15         18.1350    23.3040    12.7980 ca         1 C58       0.315900
     23 C16         17.8570    22.1040    12.1200 ca         1 C58      -0.120000
     24 C17         16.5790    16.5190    16.7360 c3         1 C58      -0.029100
     25 C18         17.3990    17.7340    17.1600 ca         1 C58      -0.082300
     26 C19         16.8220    19.0190    17.1310 ca         1 C58      -0.106500
     27 C20         17.5720    20.1430    17.5160 ca         1 C58      -0.109500
     28 C21         18.9070    19.9910    17.9260 ca         1 C58      -0.112000
     29 C22         19.4890    18.7130    17.9550 ca         1 C58      -0.109500
     30 C23         18.7370    17.5870    17.5760 ca         1 C58      -0.106500
     31 H           16.1360    17.3780    14.8180 h1         1 C58       0.044700
     32 HN          14.4770    15.8220    15.0830 hn         1 C58       0.395000
     33 HNA         15.3520    15.3840    13.8030 hn         1 C58       0.395000
     34 H1          18.5940    16.7620    14.8620 h1         1 C58       0.065700
     35 H1A         18.1380    15.0560    14.8400 h1         1 C58       0.065700
     36 HN1         17.6150    15.2180    12.5480 hn         1 C58       0.504000
     37 H8          15.2340    15.5380     7.4040 hc         1 C58       0.054700
     38 H8A         16.8070    15.8420     6.6820 hc         1 C58       0.054700
     39 H9          16.3200    13.3730     7.1700 hc         1 C58       0.045700
     40 H9A         17.8300    13.9650     7.8610 hc         1 C58       0.045700
     41 H10         15.1640    13.7410     9.3870 hc         1 C58       0.045200
     42 H10A        16.4960    12.5990     9.5270 hc         1 C58       0.045200
     43 H11         17.9340    14.2060    10.5980 hc         1 C58       0.046200
     44 H11A        16.3600    14.3810    11.3660 hc         1 C58       0.046200
     45 H13         18.5680    20.0280    14.7310 ha         1 C58       0.144500
     46 H14         19.0170    22.2280    15.7730 h4         1 C58       0.018100
     47 H15         18.0280    24.2630    12.2920 h4         1 C58       0.018100
     48 H16         17.5340    22.1590    11.0850 ha         1 C58       0.144500
     49 H17         15.5750    16.5970    17.1720 hc         1 C58       0.055200
     50 H17A        17.0140    15.5970    17.1410 hc         1 C58       0.055200
     51 H19         15.7900    19.1470    16.8110 ha         1 C58       0.110000
     52 H20         17.1180    21.1320    17.4950 ha         1 C58       0.114500
     53 H21         19.4890    20.8610    18.2230 ha         1 C58       0.115000
     54 H22         20.5230    18.5940    18.2730 ha         1 C58       0.114500
     55 H23         19.1970    16.6020    17.6030 ha         1 C58       0.110000
@<TRIPOS>BOND
     1     1     2 1   
     2     1     4 1   
     3     1    24 1   
     4     1    31 1   
     5     2    32 1   
     6     2    33 1   
     7     3    10 1   
     8     3    14 1   
     9     4     5 1   
    10     4    34 1   
    11     4    35 1   
    12     5     6 1   
    13     5    36 1   
    14     6     7 ar  
    15     6    12 ar  
    16     7     8 ar  
    17     8     9 ar  
    18     8    19 1   
    19     9    10 ar  
    20    10    12 ar  
    21    11    21 ar  
    22    11    22 ar  
    23    12    13 1   
    24    13    14 2   
    25    13    18 1   
    26    14    15 1   
    27    15    16 1   
    28    15    37 1   
    29    15    38 1   
    30    16    17 1   
    31    16    39 1   
    32    16    40 1   
    33    17    18 1   
    34    17    41 1   
    35    17    42 1   
    36    18    43 1   
    37    18    44 1   
    38    19    20 ar  
    39    19    23 ar  
    40    20    21 ar  
    41    20    45 1   
    42    21    46 1   
    43    22    23 ar  
    44    22    47 1   
    45    23    48 1   
    46    24    25 1   
    47    24    49 1   
    48    24    50 1   
    49    25    26 ar  
    50    25    30 ar  
    51    26    27 ar  
    52    26    51 1   
    53    27    28 ar  
    54    27    52 1   
    55    28    29 ar  
    56    28    53 1   
    57    29    30 ar  
    58    29    54 1   
    59    30    55 1   
@<TRIPOS>SUBSTRUCTURE
     1 C58         1 TEMP              0 ****  ****    0 ROOT
