@<TRIPOS>MOLECULE
C58
   55    59     1     0     0
SMALL
bcc


@<TRIPOS>ATOM
      1 C           16.3770    16.5210    15.2990 c3         1 C58       0.143500
      2 N           15.3860    15.4810    15.0600 n8         1 C58      -0.892800
      3 S           17.0770    18.1260     8.4940 ss         1 C58      -0.107900
      4 C1          17.6410    16.2030    14.5050 c3         1 C58       0.233800
      5 N1          17.4140    16.1360    13.0760 nu         1 C58      -0.875900
      6 C2          17.4090    17.2090    12.2730 ca         1 C58       0.758200
      7 N2          17.6140    18.4000    12.8310 nb         1 C58      -0.809000
      8 C3          17.6560    19.4850    12.0650 cp         1 C58       0.763500
      9 N3          17.5120    19.5200    10.7530 nb         1 C58      -0.713000
     10 C4          17.2920    18.3330    10.1970 ca         1 C58       0.500600
     11 N4          18.3480    23.2130    14.0470 nb         1 C58      -0.657000
     12 C5          17.2060    17.1160    10.8690 ca         1 C58      -0.362400
     13 C6          16.9380    16.0130     9.9870 cc         1 C58      -0.048400
     14 C7          16.8600    16.4120     8.6910 cd         1 C58      -0.075600
     15 C8          16.6260    15.5210     7.5150 c6         1 C58      -0.008200
     16 C9          16.8610    14.0670     7.9120 c6         1 C58      -0.071400
     17 C10         16.1650    13.7490     9.2290 c6         1 C58      -0.072400
     18 C11         16.7370    14.5760    10.3790 c6         1 C58      -0.019200
     19 C12         17.8940    20.7740    12.7540 cp         1 C58      -0.110500
     20 C13         18.0810    20.8350    14.1320 ca         1 C58      -0.203300
     21 C14         18.3020    22.0700    14.7210 ca         1 C58       0.381200
     22 C15         18.1700    23.1510    12.7320 ca         1 C58       0.381200
     23 C16         17.9430    21.9700    12.0440 ca         1 C58      -0.203300
     24 C17         16.6880    16.5710    16.7990 c3         1 C58      -0.029100
     25 C18         17.5250    17.7550    17.1930 ca         1 C58      -0.082300
     26 C19         16.9270    18.9950    17.4100 ca         1 C58      -0.124500
     27 C20         17.6850    20.1020    17.7650 ca         1 C58      -0.127500
     28 C21         19.0630    19.9890    17.9000 ca         1 C58      -0.130000
     29 C22         19.6720    18.7610    17.6820 ca         1 C58      -0.127500
     30 C23         18.9070    17.6540    17.3360 ca         1 C58      -0.124500
     31 H           16.0280    17.5180    14.9910 h1         1 C58       0.044700
     32 HN          14.5250    15.7300    15.5330 hn         1 C58       0.339800
     33 HNA         15.1500    15.4600    14.0750 hn         1 C58       0.339800
     34 H1          18.4070    16.9490    14.7110 h1         1 C58       0.065700
     35 H1A         18.0270    15.2290    14.8140 h1         1 C58       0.065700
     36 HN1         17.3430    15.2240    12.6620 hn         1 C58       0.448800
     37 H8          15.6030    15.6510     7.1470 hc         1 C58       0.054700
     38 H8A         17.2850    15.8020     6.6890 hc         1 C58       0.054700
     39 H9          16.4960    13.4110     7.1190 hc         1 C58       0.045700
     40 H9A         17.9340    13.8820     8.0090 hc         1 C58       0.045700
     41 H10         15.0950    13.9560     9.1300 hc         1 C58       0.045200
     42 H10A        16.2600    12.6890     9.4670 hc         1 C58       0.045200
     43 H11         17.6910    14.1440    10.7030 hc         1 C58       0.046200
     44 H11A        16.0550    14.5110    11.2320 hc         1 C58       0.046200
     45 H13         18.0520    19.9420    14.7420 ha         1 C58       0.162500
     46 H14         18.4490    22.1330    15.7930 h4         1 C58       0.018100
     47 H15         18.2080    24.0900    12.1920 h4         1 C58       0.018100
     48 H16         17.8080    21.9870    10.9720 ha         1 C58       0.162500
     49 H17         15.7400    16.6090    17.3430 hc         1 C58       0.055200
     50 H17A        17.1770    15.6380    17.0930 hc         1 C58       0.055200
     51 H19         15.8520    19.0930    17.3090 ha         1 C58       0.128000
     52 H20         17.1990    21.0540    17.9400 ha         1 C58       0.132500
     53 H21         19.6550    20.8520    18.1770 ha         1 C58       0.133000
     54 H22         20.7450    18.6610    17.7870 ha         1 C58       0.132500
     55 H23         19.3930    16.6980    17.1770 ha         1 C58       0.128000
@<TRIPOS>BOND
     1     1     2 1   
     2     1     4 1   
     3     1    24 1   
     4     1    31 1   
     5     2    32 1   
     6     2    33 1   
     7     3    10 1   
     8     3    14 1   
     9     4     5 1   
    10     4    34 1   
    11     4    35 1   
    12     5     6 1   
    13     5    36 1   
    14     6     7 ar  
    15     6    12 ar  
    16     7     8 ar  
    17     8     9 ar  
    18     8    19 1   
    19     9    10 ar  
    20    10    12 ar  
    21    11    21 ar  
    22    11    22 ar  
    23    12    13 1   
    24    13    14 2   
    25    13    18 1   
    26    14    15 1   
    27    15    16 1   
    28    15    37 1   
    29    15    38 1   
    30    16    17 1   
    31    16    39 1   
    32    16    40 1   
    33    17    18 1   
    34    17    41 1   
    35    17    42 1   
    36    18    43 1   
    37    18    44 1   
    38    19    20 ar  
    39    19    23 ar  
    40    20    21 ar  
    41    20    45 1   
    42    21    46 1   
    43    22    23 ar  
    44    22    47 1   
    45    23    48 1   
    46    24    25 1   
    47    24    49 1   
    48    24    50 1   
    49    25    26 ar  
    50    25    30 ar  
    51    26    27 ar  
    52    26    51 1   
    53    27    28 ar  
    54    27    52 1   
    55    28    29 ar  
    56    28    53 1   
    57    29    30 ar  
    58    29    54 1   
    59    30    55 1   
@<TRIPOS>SUBSTRUCTURE
     1 C58         1 TEMP              0 ****  ****    0 ROOT
