@<TRIPOS>MOLECULE
C5A
   21    21     1     0     0
SMALL
No Charge or Current Charge


@<TRIPOS>ATOM
      1 N            5.5220    -0.7160    -0.2970 n8         1 C5A      -0.989200
      2 CA           4.3380    -0.9990     0.5870 c5         1 C5A       0.022200
      3 C            4.3020    -2.4820     1.2340 c          1 C5A       0.748000
      4 O            4.1170    -2.6490     2.4350 o          1 C5A      -0.747000
      5 OXT          4.5610    -3.4380     0.5090 o          1 C5A      -0.747000
      6 CB1          2.9850    -0.8210    -0.2140 c5         1 C5A      -0.064400
      7 CB2          4.2420     0.1070     1.7130 c5         1 C5A      -0.042400
      8 CG2          2.7180     0.3300     1.8770 c5         1 C5A      -0.053400
      9 CD           2.3230     0.4610     0.3840 c5         1 C5A      -0.169700
     10 CE           0.7730     0.4540     0.2010 c          1 C5A       0.728000
     11 OZ1          0.1020    -0.4630     0.6540 o          1 C5A      -0.760000
     12 OZ2          0.2530     1.3890    -0.3910 o          1 C5A      -0.760000
     13 HN1          5.3000     0.0810    -0.9010 hn         1 C5A       0.361500
     14 HN2          5.6330    -1.5010    -0.9480 hn         1 C5A       0.361500
     15 HB11         2.3370    -1.6950    -0.0830 hc         1 C5A       0.022200
     16 HB12         3.1360    -0.7220    -1.2950 hc         1 C5A       0.022200
     17 HB21         4.7240     1.0430     1.4030 hc         1 C5A       0.002700
     18 HB22         4.7280    -0.1770     2.6530 hc         1 C5A       0.002700
     19 HG21         2.2300    -0.5160     2.3750 hc         1 C5A       0.035200
     20 HG22         2.4880     1.2340     2.4530 hc         1 C5A       0.035200
     21 HD           2.7460     1.3680    -0.0660 hc         1 C5A      -0.008300
@<TRIPOS>BOND
     1     1     2 1   
     2     1    13 1   
     3     1    14 1   
     4     2     3 1   
     5     2     6 1   
     6     2     7 1   
     7     3     4 1   
     8     3     5 1   
     9     6     9 1   
    10     6    15 1   
    11     6    16 1   
    12     7     8 1   
    13     7    17 1   
    14     7    18 1   
    15     8     9 1   
    16     8    19 1   
    17     8    20 1   
    18     9    10 1   
    19     9    21 1   
    20    10    11 1   
    21    10    12 1   
@<TRIPOS>SUBSTRUCTURE
     1 C5A         1 TEMP              0 ****  ****    0 ROOT
