@<TRIPOS>MOLECULE
C5A
   21    21     1     0     0
SMALL
bcc


@<TRIPOS>ATOM
      1 N            5.6070    -1.1650     0.0260 n8         1 C5A      -0.878800
      2 CA           4.2900    -0.9510     0.6260 c5         1 C5A       0.022200
      3 C            3.9440    -2.2670     1.3790 c          1 C5A       0.958600
      4 O            3.7130    -2.2220     2.6000 o          1 C5A      -0.852300
      5 OXT          3.9380    -3.2980     0.6690 o          1 C5A      -0.852300
      6 CB1          3.1660    -0.6100    -0.3830 c5         1 C5A      -0.064400
      7 CB2          4.2970     0.2760     1.5350 c5         1 C5A      -0.042400
      8 CG2          2.8260     0.6350     1.7020 c5         1 C5A      -0.053400
      9 CD           2.1940     0.3520     0.3260 c5         1 C5A      -0.169700
     10 CE           0.7220    -0.0900     0.3940 c          1 C5A       0.938600
     11 OZ1          0.3110    -0.8960    -0.4660 o          1 C5A      -0.865300
     12 OZ2          0.0280     0.4340     1.2920 o          1 C5A      -0.865300
     13 HN1          5.7900    -0.4160    -0.6340 hn         1 C5A       0.306300
     14 HN2          5.5710    -2.0130    -0.5260 hn         1 C5A       0.306300
     15 HB11         2.6660    -1.5010    -0.7580 hc         1 C5A       0.022200
     16 HB12         3.6200    -0.1220    -1.2530 hc         1 C5A       0.022200
     17 HB21         4.8230     1.0910     1.0210 hc         1 C5A       0.002700
     18 HB22         4.8100     0.0990     2.4810 hc         1 C5A       0.002700
     19 HG21         2.3840    -0.0080     2.4630 hc         1 C5A       0.035200
     20 HG22         2.6750     1.6660     2.0260 hc         1 C5A       0.035200
     21 HD           2.1810     1.2950    -0.2370 hc         1 C5A      -0.008300
@<TRIPOS>BOND
     1     1     2 1   
     2     1    13 1   
     3     1    14 1   
     4     2     3 1   
     5     2     6 1   
     6     2     7 1   
     7     3     4 1   
     8     3     5 1   
     9     6     9 1   
    10     6    15 1   
    11     6    16 1   
    12     7     8 1   
    13     7    17 1   
    14     7    18 1   
    15     8     9 1   
    16     8    19 1   
    17     8    20 1   
    18     9    10 1   
    19     9    21 1   
    20    10    11 1   
    21    10    12 1   
@<TRIPOS>SUBSTRUCTURE
     1 C5A         1 TEMP              0 ****  ****    0 ROOT
