@<TRIPOS>MOLECULE
C5B
   21    21     1     0     0
SMALL
abcg2


@<TRIPOS>ATOM
      1 N           -3.1220     4.0560    -2.4210 n8         1 C5B      -0.994200
      2 CA          -2.5780     2.7200    -2.6390 c5         1 C5B       0.021200
      3 C           -3.6730     1.8760    -3.3400 c          1 C5B       0.741000
      4 O           -4.8030     1.9090    -2.8050 o          1 C5B      -0.752500
      5 OXT         -3.3640     1.2210    -4.3530 o          1 C5B      -0.752500
      6 CB1         -2.1250     1.9830    -1.3650 c5         1 C5B      -0.062400
      7 CB2         -1.2670     2.7800    -3.4250 c5         1 C5B      -0.035400
      8 CG2         -0.5330     1.4660    -3.1250 c5         1 C5B      -0.053400
      9 CD          -1.1880     0.8720    -1.8610 c5         1 C5B      -0.176700
     10 CE          -0.2470     0.4080    -0.7380 c          1 C5B       0.715000
     11 OZ1          0.9400     0.7960    -0.7500 o          1 C5B      -0.767500
     12 OZ2         -0.7700    -0.3110     0.1410 o          1 C5B      -0.767500
     13 HN1         -2.5140     4.5640    -1.7870 hn         1 C5B       0.367000
     14 HN2         -4.0130     3.9670    -1.9480 hn         1 C5B       0.367000
     15 HB11        -2.9590     1.6140    -0.7640 hc         1 C5B       0.019700
     16 HB12        -1.5650     2.6940    -0.7420 hc         1 C5B       0.019700
     17 HB21        -0.6830     3.6250    -3.0440 hc         1 C5B       0.006200
     18 HB22        -1.4220     2.9550    -4.4900 hc         1 C5B       0.006200
     19 HG21        -0.6230     0.7720    -3.9610 hc         1 C5B       0.024700
     20 HG22         0.5310     1.6330    -2.9590 hc         1 C5B       0.024700
     21 HD          -1.8030     0.0130    -2.1460 hc         1 C5B       0.049700
@<TRIPOS>BOND
     1     1     2 1   
     2     1    13 1   
     3     1    14 1   
     4     2     3 1   
     5     2     6 1   
     6     2     7 1   
     7     3     4 1   
     8     3     5 1   
     9     6     9 1   
    10     6    15 1   
    11     6    16 1   
    12     7     8 1   
    13     7    17 1   
    14     7    18 1   
    15     8     9 1   
    16     8    19 1   
    17     8    20 1   
    18     9    10 1   
    19     9    21 1   
    20    10    11 1   
    21    10    12 1   
@<TRIPOS>SUBSTRUCTURE
     1 C5B         1 TEMP              0 ****  ****    0 ROOT
