@<TRIPOS>MOLECULE
C5B
   21    21     1     0     0
SMALL
No Charge or Current Charge


@<TRIPOS>ATOM
      1 N           -3.0650     4.1670    -2.4440 n8         1 C5B      -0.994200
      2 CA          -2.5900     2.7590    -2.6730 c5         1 C5B       0.021200
      3 C           -3.6370     1.8040    -3.4560 c          1 C5B       0.741000
      4 O           -4.5500     1.2740    -2.8310 o          1 C5B      -0.752500
      5 OXT         -3.5580     1.6680    -4.6720 o          1 C5B      -0.752500
      6 CB1         -2.1590     2.1000    -1.3200 c5         1 C5B      -0.062400
      7 CB2         -1.1890     2.7420    -3.3730 c5         1 C5B      -0.035400
      8 CG2         -0.6810     1.2870    -3.1430 c5         1 C5B      -0.053400
      9 CD          -1.3120     0.8610    -1.7710 c5         1 C5B      -0.176700
     10 CE          -0.2150     0.5170    -0.7190 c          1 C5B       0.715000
     11 OZ1          0.6350     1.3440    -0.4210 o          1 C5B      -0.767500
     12 OZ2         -0.2230    -0.5960    -0.2150 o          1 C5B      -0.767500
     13 HN1         -2.4150     4.6380    -1.8060 hn         1 C5B       0.367000
     14 HN2         -3.9470     4.1370    -1.9190 hn         1 C5B       0.367000
     15 HB11        -3.0100     1.8070    -0.6950 hc         1 C5B       0.019700
     16 HB12        -1.5640     2.7970    -0.7180 hc         1 C5B       0.019700
     17 HB21        -0.5020     3.4640    -2.9130 hc         1 C5B       0.006200
     18 HB22        -1.2360     2.9980    -4.4380 hc         1 C5B       0.006200
     19 HG21        -1.0190     0.6200    -3.9440 hc         1 C5B       0.024700
     20 HG22         0.4140     1.2390    -3.1470 hc         1 C5B       0.024700
     21 HD          -1.9570    -0.0150    -1.9050 hc         1 C5B       0.049700
@<TRIPOS>BOND
     1     1     2 1   
     2     1    13 1   
     3     1    14 1   
     4     2     3 1   
     5     2     6 1   
     6     2     7 1   
     7     3     4 1   
     8     3     5 1   
     9     6     9 1   
    10     6    15 1   
    11     6    16 1   
    12     7     8 1   
    13     7    17 1   
    14     7    18 1   
    15     8     9 1   
    16     8    19 1   
    17     8    20 1   
    18     9    10 1   
    19     9    21 1   
    20    10    11 1   
    21    10    12 1   
@<TRIPOS>SUBSTRUCTURE
     1 C5B         1 TEMP              0 ****  ****    0 ROOT
