@<TRIPOS>MOLECULE
C5C
   27    27     1     0     0
SMALL
bcc


@<TRIPOS>ATOM
      1 N           13.0120    20.5850    16.2790 n8         1 C5C      -0.893800
      2 CA          14.1940    21.3280    15.8720 c3         1 C5C       0.010500
      3 C           14.9210    22.1160    16.9970 c          1 C5C       0.906600
      4 O           14.2720    22.3390    18.0360 o          1 C5C      -0.824800
      5 CB          13.8540    22.2830    14.7290 c3         1 C5C       0.049700
      6 SG          12.7570    23.6160    15.3390 ss         1 C5C      -0.120100
      7 SD          12.2620    24.6190    13.6200 ss         1 C5C      -0.284100
      8 C1          10.6390    23.9790    13.0690 c5         1 C5C       0.029400
      9 C2          10.6300    22.5380    12.5620 c5         1 C5C      -0.069400
     10 C3          10.2800    21.6760    13.7770 c5         1 C5C      -0.082400
     11 C4           9.4490    22.5790    14.7100 c5         1 C5C      -0.082400
     12 C5           9.5430    24.0070    14.1390 c5         1 C5C      -0.069400
     13 OXT         16.0820    22.4870    16.7340 o          1 C5C      -0.824800
     14 H           13.3080    19.7810    16.8190 hn         1 C5C       0.333800
     15 H2          12.4960    21.1560    16.9390 hn         1 C5C       0.333800
     16 HA          14.9060    20.6140    15.4470 h1         1 C5C       0.046700
     17 HB2         14.7600    22.7390    14.3320 h1         1 C5C       0.056200
     18 HB3         13.3440    21.7470    13.9300 h1         1 C5C       0.056200
     19 H1          10.4210    24.6850    12.2610 h1         1 C5C       0.065700
     20 H21          9.8430    22.4540    11.8070 hc         1 C5C       0.040450
     21 H22         11.5650    22.2510    12.0790 hc         1 C5C       0.040450
     22 H31          9.7350    20.7780    13.4820 hc         1 C5C       0.050200
     23 H32         11.1820    21.3400    14.2880 hc         1 C5C       0.050200
     24 H41          8.4090    22.2560    14.7570 hc         1 C5C       0.050200
     25 H42          9.8390    22.5380    15.7270 hc         1 C5C       0.050200
     26 H51          9.7270    24.7620    14.9040 hc         1 C5C       0.040450
     27 H52          8.6030    24.2770    13.6530 hc         1 C5C       0.040450
@<TRIPOS>BOND
     1     1     2 1   
     2     1    14 1   
     3     1    15 1   
     4     2     3 1   
     5     2     5 1   
     6     2    16 1   
     7     3     4 1   
     8     3    13 1   
     9     5     6 1   
    10     5    17 1   
    11     5    18 1   
    12     6     7 1   
    13     7     8 1   
    14     8     9 1   
    15     8    12 1   
    16     8    19 1   
    17     9    10 1   
    18     9    20 1   
    19     9    21 1   
    20    10    11 1   
    21    10    22 1   
    22    10    23 1   
    23    11    12 1   
    24    11    24 1   
    25    11    25 1   
    26    12    26 1   
    27    12    27 1   
@<TRIPOS>SUBSTRUCTURE
     1 C5C         1 TEMP              0 ****  ****    0 ROOT
