@<TRIPOS>MOLECULE
C5C
   27    27     1     0     0
SMALL
No Charge or Current Charge


@<TRIPOS>ATOM
      1 N           13.5080    20.4070    16.2200 n8         1 C5C      -0.893800
      2 CA          14.5730    21.3970    15.7870 c3         1 C5C       0.010500
      3 C           15.2790    22.2700    16.9100 c          1 C5C       0.906600
      4 O           14.7720    22.3290    18.0260 o          1 C5C      -0.824800
      5 CB          14.0460    22.3120    14.6540 c3         1 C5C       0.049700
      6 SG          12.6990    23.4410    15.2380 ss         1 C5C      -0.120100
      7 SD          12.2270    24.6090    13.5540 ss         1 C5C      -0.284100
      8 C1          10.5620    23.8500    13.1260 c5         1 C5C       0.029400
      9 C2          10.6540    22.3020    12.9130 c5         1 C5C      -0.069400
     10 C3           9.7550    21.7070    14.0340 c5         1 C5C      -0.082400
     11 C4           8.6610    22.7950    14.1690 c5         1 C5C      -0.082400
     12 C5           9.5470    24.0580    14.2950 c5         1 C5C      -0.069400
     13 OXT         16.3760    22.7600    16.6620 o          1 C5C      -0.824800
     14 H           13.8940    19.8040    16.9550 hn         1 C5C       0.333800
     15 H2          12.7640    20.9250    16.6990 hn         1 C5C       0.333800
     16 HA          15.3800    20.7950    15.3480 h1         1 C5C       0.046700
     17 HB2         14.8690    22.9280    14.2690 h1         1 C5C       0.056200
     18 HB3         13.6740    21.6960    13.8270 h1         1 C5C       0.056200
     19 H1          10.1880    24.3280    12.2100 h1         1 C5C       0.065700
     20 H21         10.2540    22.0390    11.9260 hc         1 C5C       0.040450
     21 H22         11.6730    21.9100    12.9400 hc         1 C5C       0.040450
     22 H31          9.3420    20.7290    13.7610 hc         1 C5C       0.050200
     23 H32         10.3090    21.5740    14.9710 hc         1 C5C       0.050200
     24 H41          8.0090    22.8350    13.2880 hc         1 C5C       0.050200
     25 H42          8.0240    22.6420    15.0480 hc         1 C5C       0.050200
     26 H51         10.0210    24.1030    15.2800 hc         1 C5C       0.040450
     27 H52          8.9710    24.9840    14.1790 hc         1 C5C       0.040450
@<TRIPOS>BOND
     1     1     2 1   
     2     1    14 1   
     3     1    15 1   
     4     2     3 1   
     5     2     5 1   
     6     2    16 1   
     7     3     4 1   
     8     3    13 1   
     9     5     6 1   
    10     5    17 1   
    11     5    18 1   
    12     6     7 1   
    13     7     8 1   
    14     8     9 1   
    15     8    12 1   
    16     8    19 1   
    17     9    10 1   
    18     9    20 1   
    19     9    21 1   
    20    10    11 1   
    21    10    22 1   
    22    10    23 1   
    23    11    12 1   
    24    11    24 1   
    25    11    25 1   
    26    12    26 1   
    27    12    27 1   
@<TRIPOS>SUBSTRUCTURE
     1 C5C         1 TEMP              0 ****  ****    0 ROOT
