@<TRIPOS>MOLECULE
C5D
   65    66     1     0     0
SMALL
bcc


@<TRIPOS>ATOM
      1 C20         -1.4900     0.8730     0.0540 c3         1 C5D      -0.061400
      2 C22         -2.6310     1.6540     0.7220 c3         1 C5D      -0.013300
      3 C23         -3.9290     1.1310     0.3330 c1         1 C5D       0.004900
      4 C24         -4.9890     0.6830    -0.0150 c1         1 C5D      -0.262100
      5 C25         -6.2600     0.0850    -0.3990 c3         1 C5D       0.142900
      6 C27         -7.3300     1.2020    -0.4620 c3         1 C5D       0.673400
      7 C26         -6.0660    -0.6310    -1.7600 c3         1 C5D       0.673400
      8 O3          -6.7410    -0.8520     0.5120 oh         1 C5D      -0.554800
      9 F11         -7.0180     2.1360    -1.3570 f          1 C5D      -0.217800
     10 F19         -8.5320     0.7230    -0.7700 f          1 C5D      -0.217800
     11 F21         -7.4220     1.7900     0.7270 f          1 C5D      -0.217800
     12 F28         -5.1530    -1.5910    -1.6220 f          1 C5D      -0.217800
     13 F29         -7.1890    -1.2020    -2.1870 f          1 C5D      -0.217800
     14 F30         -5.6410     0.2010    -2.7090 f          1 C5D      -0.217800
     15 O2          10.2590    -2.0820    -0.1670 oh         1 C5D      -0.597300
     16 C1           8.5860     1.2270    -0.6470 c6         1 C5D       0.152600
     17 C2           9.6710     0.1590    -0.6690 c6         1 C5D      -0.068400
     18 C3           9.2080    -1.1460    -0.0370 c6         1 C5D       0.152600
     19 C4           7.9220    -1.6390    -0.7080 c6         1 C5D      -0.081200
     20 C5           6.8620    -0.5770    -0.6760 c2         1 C5D      -0.087400
     21 C6           5.6710    -0.7940    -0.0980 ce         1 C5D      -0.132000
     22 C8           3.4050    -0.1530     0.6080 c2         1 C5D      -0.148200
     23 C10          7.3020     0.7110    -1.3050 c6         1 C5D      -0.081200
     24 C12          1.3430     0.9130    -1.6280 c3         1 C5D      -0.083100
     25 C13          1.0470     0.4930    -0.1930 c5         1 C5D      -0.028000
     26 C14          2.2590     0.7920     0.7350 c5         1 C5D      -0.030500
     27 C15          1.6670     0.8500     2.1560 c5         1 C5D      -0.068400
     28 C16          0.1520     1.0550     1.9880 c5         1 C5D      -0.075400
     29 C17         -0.0910     1.3230     0.4900 c5         1 C5D      -0.040000
     30 C18          0.7350    -1.0070    -0.1890 c3         1 C5D      -0.083100
     31 C9           0.0710     2.8210     0.1970 c3         1 C5D      -0.085100
     32 H20         -1.6310    -0.1810     0.2950 hc         1 C5D       0.052700
     33 H20A        -1.5920     0.9640    -1.0310 hc         1 C5D       0.052700
     34 H22         -2.5490     1.5990     1.8100 hc         1 C5D       0.072200
     35 H22A        -2.5940     2.7130     0.4600 hc         1 C5D       0.072200
     36 HO3         -6.0320    -1.1310     1.1030 ho         1 C5D       0.445000
     37 HO2         10.0060    -2.8810     0.3080 ho         1 C5D       0.403000
     38 H1           8.9390     2.0930    -1.2240 h1         1 C5D       0.041700
     39 H2           9.9490    -0.0260    -1.7110 hc         1 C5D       0.061200
     40 H2A         10.5660     0.5280    -0.1620 hc         1 C5D       0.061200
     41 H3           8.9880    -0.9700     1.0240 h1         1 C5D       0.041700
     42 H4           8.1580    -1.8930    -1.7490 hc         1 C5D       0.051700
     43 H4A          7.5710    -2.5530    -0.2200 hc         1 C5D       0.051700
     44 H6           5.4930    -1.7790     0.3280 ha         1 C5D       0.120000
     45 H8           3.2730    -1.1480     1.0290 ha         1 C5D       0.119000
     46 H10          6.5320     1.4850    -1.2670 hc         1 C5D       0.051700
     47 H10A         7.5110     0.5430    -2.3670 hc         1 C5D       0.051700
     48 H12          2.1270     0.2840    -2.0530 hc         1 C5D       0.035867
     49 H12A         0.4620     0.8150    -2.2660 hc         1 C5D       0.035867
     50 H12B         1.6880     1.9460    -1.6890 hc         1 C5D       0.035867
     51 H14          2.6360     1.7830     0.4650 hc         1 C5D       0.049700
     52 H15          1.8720    -0.0750     2.6980 hc         1 C5D       0.044700
     53 H15A         2.1320     1.6520     2.7320 hc         1 C5D       0.044700
     54 H16         -0.3890     0.1570     2.2980 hc         1 C5D       0.041700
     55 H16A        -0.2280     1.8700     2.6080 hc         1 C5D       0.041700
     56 H18          1.5870    -1.5720    -0.5720 hc         1 C5D       0.035867
     57 H18A         0.5090    -1.3960     0.8060 hc         1 C5D       0.035867
     58 H18B        -0.1090    -1.2440    -0.8380 hc         1 C5D       0.035867
     59 H9          -0.5770     3.4170     0.8400 hc         1 C5D       0.034700
     60 H9A          1.0880     3.1760     0.3720 hc         1 C5D       0.034700
     61 H9B         -0.1850     3.0600    -0.8360 hc         1 C5D       0.034700
     62 C7           4.5710     0.1450     0.0210 ce         1 C5D      -0.131000
     63 O1           8.3660     1.5880     0.7020 oh         1 C5D      -0.597300
     64 H7           4.6990     1.1450    -0.3850 ha         1 C5D       0.115000
     65 HO1          7.6130     2.1860     0.7380 ho         1 C5D       0.403000
@<TRIPOS>BOND
     1     1     2 1   
     2     1    29 1   
     3     1    32 1   
     4     1    33 1   
     5     2     3 1   
     6     2    34 1   
     7     2    35 1   
     8     3     4 3   
     9     4     5 1   
    10     5     6 1   
    11     5     7 1   
    12     5     8 1   
    13     6     9 1   
    14     6    10 1   
    15     6    11 1   
    16     7    12 1   
    17     7    13 1   
    18     7    14 1   
    19     8    36 1   
    20    15    18 1   
    21    15    37 1   
    22    16    17 1   
    23    16    23 1   
    24    16    38 1   
    25    16    63 1   
    26    17    18 1   
    27    17    39 1   
    28    17    40 1   
    29    18    19 1   
    30    18    41 1   
    31    19    20 1   
    32    19    42 1   
    33    19    43 1   
    34    20    21 2   
    35    20    23 1   
    36    21    44 1   
    37    21    62 1   
    38    22    26 1   
    39    22    45 1   
    40    22    62 2   
    41    23    46 1   
    42    23    47 1   
    43    24    25 1   
    44    24    48 1   
    45    24    49 1   
    46    24    50 1   
    47    25    26 1   
    48    25    29 1   
    49    25    30 1   
    50    26    27 1   
    51    26    51 1   
    52    27    28 1   
    53    27    52 1   
    54    27    53 1   
    55    28    29 1   
    56    28    54 1   
    57    28    55 1   
    58    29    31 1   
    59    30    56 1   
    60    30    57 1   
    61    30    58 1   
    62    31    59 1   
    63    31    60 1   
    64    31    61 1   
    65    62    64 1   
    66    63    65 1   
@<TRIPOS>SUBSTRUCTURE
     1 C5D         1 TEMP              0 ****  ****    0 ROOT
