@<TRIPOS>MOLECULE
C5D
   65    66     1     0     0
SMALL
No Charge or Current Charge


@<TRIPOS>ATOM
      1 C20         -1.4640     1.0200     0.2630 c3         1 C5D      -0.061400
      2 C22         -2.6950     1.6300     0.9870 c3         1 C5D      -0.013300
      3 C23         -3.9610     1.2180     0.3700 c1         1 C5D       0.004900
      4 C24         -4.9850     0.8550    -0.1620 c1         1 C5D      -0.262100
      5 C25         -6.2080     0.3900    -0.8460 c3         1 C5D       0.166100
      6 C27         -6.3220     1.0550    -2.2770 c3         1 C5D       0.309500
      7 C26         -6.2260    -1.1920    -0.9120 c3         1 C5D       0.309500
      8 O3          -7.3030     0.8440    -0.0240 oh         1 C5D      -0.617000
      9 F11         -5.2910     0.7010    -3.0830 f          1 C5D      -0.096500
     10 F19         -7.4680     0.7030    -2.9070 f          1 C5D      -0.096500
     11 F21         -6.3160     2.4080    -2.1930 f          1 C5D      -0.096500
     12 F28         -6.1460    -1.7360     0.3270 f          1 C5D      -0.096500
     13 F29         -7.3660    -1.6590    -1.4760 f          1 C5D      -0.096500
     14 F30         -5.1870    -1.6810    -1.6310 f          1 C5D      -0.096500
     15 O2          10.2190    -1.9380    -0.9250 oh         1 C5D      -0.659500
     16 C1           8.3710     1.4000    -1.0690 c6         1 C5D       0.175800
     17 C2           9.4780     0.3510    -1.3400 c6         1 C5D      -0.068400
     18 C3           9.2030    -0.9830    -0.5990 c6         1 C5D       0.175800
     19 C4           7.8080    -1.5430    -0.9770 c6         1 C5D      -0.081200
     20 C5           6.7010    -0.5170    -0.7400 c2         1 C5D      -0.087400
     21 C6           5.6010    -0.8290    -0.0080 ce         1 C5D      -0.182000
     22 C8           3.4050    -0.3690     1.0370 c2         1 C5D      -0.198200
     23 C10          6.9710     0.8310    -1.4210 c6         1 C5D      -0.081200
     24 C12          1.5070     1.1460    -1.1910 c3         1 C5D      -0.083100
     25 C13          1.1290     0.4900     0.1700 c5         1 C5D      -0.028000
     26 C14          2.2780     0.6520     1.2380 c5         1 C5D      -0.030500
     27 C15          1.5680     0.3890     2.6080 c5         1 C5D      -0.068400
     28 C16          0.0390     0.5650     2.3330 c5         1 C5D      -0.075400
     29 C17         -0.0580     1.2480     0.9280 c5         1 C5D      -0.040000
     30 C18          0.8290    -1.0170    -0.1580 c3         1 C5D      -0.083100
     31 C9           0.1440     2.8010     1.0490 c3         1 C5D      -0.085100
     32 H20         -1.6560    -0.0560     0.1800 hc         1 C5D       0.052700
     33 H20A        -1.4500     1.4000    -0.7670 hc         1 C5D       0.052700
     34 H22         -2.7050     1.3230     2.0390 hc         1 C5D       0.072200
     35 H22A        -2.6510     2.7250     0.9660 hc         1 C5D       0.072200
     36 HO3         -6.9530     0.9000     0.8920 ho         1 C5D       0.484000
     37 HO2         10.0440    -2.7330    -0.3760 ho         1 C5D       0.442000
     38 H1           8.5580     2.2710    -1.7160 h1         1 C5D       0.041700
     39 H2           9.5430     0.1650    -2.4200 hc         1 C5D       0.061200
     40 H2A         10.4530     0.7530    -1.0360 hc         1 C5D       0.061200
     41 H3           9.2140    -0.7860     0.4840 h1         1 C5D       0.041700
     42 H4           7.8010    -1.8370    -2.0360 hc         1 C5D       0.051700
     43 H4A          7.6130    -2.4590    -0.4030 hc         1 C5D       0.051700
     44 H6           5.5320    -1.8320     0.4180 ha         1 C5D       0.170000
     45 H8           3.3680    -1.3730     1.4650 ha         1 C5D       0.169000
     46 H10          6.2090     1.5820    -1.1860 hc         1 C5D       0.051700
     47 H10A         6.9110     0.6890    -2.5090 hc         1 C5D       0.051700
     48 H12          2.3330     0.6120    -1.6760 hc         1 C5D       0.035867
     49 H12A         0.6620     1.1410    -1.8890 hc         1 C5D       0.035867
     50 H12B         1.8300     2.1850    -1.0690 hc         1 C5D       0.035867
     51 H14          2.7000     1.6630     1.2280 hc         1 C5D       0.049700
     52 H15          1.7670    -0.6140     3.0020 hc         1 C5D       0.044700
     53 H15A         1.9220     1.0950     3.3680 hc         1 C5D       0.044700
     54 H16         -0.4700    -0.4060     2.3470 hc         1 C5D       0.041700
     55 H16A        -0.4420     1.1610     3.1170 hc         1 C5D       0.041700
     56 H18          1.6920    -1.5050    -0.6270 hc         1 C5D       0.035867
     57 H18A         0.5780    -1.6070     0.7300 hc         1 C5D       0.035867
     58 H18B         0.0040    -1.1220    -0.8710 hc         1 C5D       0.035867
     59 H9          -0.5840     3.2490     1.7350 hc         1 C5D       0.034700
     60 H9A          1.1220     3.0900     1.4420 hc         1 C5D       0.034700
     61 H9B          0.0230     3.2980     0.0790 hc         1 C5D       0.034700
     62 C7           4.4510     0.0410     0.2850 ce         1 C5D      -0.181000
     63 O1           8.4090     1.8180     0.3020 oh         1 C5D      -0.659500
     64 H7           4.4520     1.0460    -0.1350 ha         1 C5D       0.165000
     65 HO1          7.5920     2.3380     0.4590 ho         1 C5D       0.442000
@<TRIPOS>BOND
     1     1     2 1   
     2     1    29 1   
     3     1    32 1   
     4     1    33 1   
     5     2     3 1   
     6     2    34 1   
     7     2    35 1   
     8     3     4 3   
     9     4     5 1   
    10     5     6 1   
    11     5     7 1   
    12     5     8 1   
    13     6     9 1   
    14     6    10 1   
    15     6    11 1   
    16     7    12 1   
    17     7    13 1   
    18     7    14 1   
    19     8    36 1   
    20    15    18 1   
    21    15    37 1   
    22    16    17 1   
    23    16    23 1   
    24    16    38 1   
    25    16    63 1   
    26    17    18 1   
    27    17    39 1   
    28    17    40 1   
    29    18    19 1   
    30    18    41 1   
    31    19    20 1   
    32    19    42 1   
    33    19    43 1   
    34    20    21 2   
    35    20    23 1   
    36    21    44 1   
    37    21    62 1   
    38    22    26 1   
    39    22    45 1   
    40    22    62 2   
    41    23    46 1   
    42    23    47 1   
    43    24    25 1   
    44    24    48 1   
    45    24    49 1   
    46    24    50 1   
    47    25    26 1   
    48    25    29 1   
    49    25    30 1   
    50    26    27 1   
    51    26    51 1   
    52    27    28 1   
    53    27    52 1   
    54    27    53 1   
    55    28    29 1   
    56    28    54 1   
    57    28    55 1   
    58    29    31 1   
    59    30    56 1   
    60    30    57 1   
    61    30    58 1   
    62    31    59 1   
    63    31    60 1   
    64    31    61 1   
    65    62    64 1   
    66    63    65 1   
@<TRIPOS>SUBSTRUCTURE
     1 C5D         1 TEMP              0 ****  ****    0 ROOT
