@<TRIPOS>MOLECULE
C5E
   28    30     1     0     0
SMALL
bcc


@<TRIPOS>ATOM
      1 O           -2.2700    -2.0130    -0.0270 o          1 C5E      -0.644500
      2 C           -1.9850    -0.8160    -0.0530 c          1 C5E       0.689700
      3 N           -0.6570    -0.4220    -0.2660 n          1 C5E      -0.335000
      4 C5           0.2810    -1.5390    -0.4790 c6         1 C5E       0.086000
      5 C6           1.7460    -1.1390    -0.5610 c6         1 C5E      -0.115700
      6 C10          2.4110    -0.9570     0.8080 c6         1 C5E       0.161800
      7 N1           1.9340     0.1790     1.5760 n7         1 C5E      -0.804200
      8 C9           1.8730     1.3920     0.7920 c6         1 C5E       0.166800
      9 C8           1.1660     1.2250    -0.5700 c6         1 C5E      -0.076500
     10 C7           1.8750     0.1430    -1.3700 c6         1 C5E      -0.070400
     11 C4          -0.2810     0.8850    -0.3580 cc         1 C5E       0.079400
     12 C3          -1.2060     1.8790    -0.2130 cd         1 C5E      -0.261000
     13 C2          -2.5490     1.5480     0.0360 cd         1 C5E      -0.029000
     14 C1          -2.9300     0.2450     0.1190 cc         1 C5E      -0.278200
     15 H1          -3.9580    -0.0350     0.3010 ha         1 C5E       0.159000
     16 H51C         0.1300    -2.2620     0.3230 h1         1 C5E       0.069700
     17 H52C        -0.0110    -2.0340    -1.4070 h1         1 C5E       0.069700
     18 H6           2.2570    -1.9610    -1.0670 hc         1 C5E       0.068700
     19 H101         2.2870    -1.8590     1.4100 h1         1 C5E       0.056200
     20 H102         3.4880    -0.8350     0.6450 h1         1 C5E       0.056200
     21 H71C         2.9250     0.4120    -1.5110 hc         1 C5E       0.055700
     22 H72C         1.4350     0.0320    -2.3650 hc         1 C5E       0.055700
     23 HA           1.0300    -0.0220     1.9870 hn         1 C5E       0.365800
     24 H91C         1.3820     2.1710     1.3790 h1         1 C5E       0.058700
     25 H92C         2.8930     1.7390     0.5920 h1         1 C5E       0.058700
     26 H8           1.2020     2.1840    -1.0910 hc         1 C5E       0.074700
     27 H2          -3.2820     2.3360     0.1570 ha         1 C5E       0.136000
     28 H3          -0.8890     2.9090    -0.2920 ha         1 C5E       0.145000
@<TRIPOS>BOND
     1     1     2 2   
     2     2     3 1   
     3     2    14 1   
     4     3     4 1   
     5     3    11 1   
     6     4     5 1   
     7     4    16 1   
     8     4    17 1   
     9     5     6 1   
    10     5    10 1   
    11     5    18 1   
    12     6     7 1   
    13     6    19 1   
    14     6    20 1   
    15     7     8 1   
    16     7    23 1   
    17     8     9 1   
    18     8    24 1   
    19     8    25 1   
    20     9    10 1   
    21     9    11 1   
    22     9    26 1   
    23    10    21 1   
    24    10    22 1   
    25    11    12 2   
    26    12    13 1   
    27    12    28 1   
    28    13    14 2   
    29    13    27 1   
    30    14    15 1   
@<TRIPOS>SUBSTRUCTURE
     1 C5E         1 TEMP              0 ****  ****    0 ROOT
