@<TRIPOS>MOLECULE
C5E
   28    30     1     0     0
SMALL
No Charge or Current Charge


@<TRIPOS>ATOM
      1 O           -2.3880    -1.9950     0.0510 o          1 C5E      -0.569000
      2 C           -2.0180    -0.8300    -0.0220 c          1 C5E       0.547200
      3 N           -0.6700    -0.4690    -0.2360 n          1 C5E      -0.268000
      4 C5           0.3060    -1.5860    -0.4410 c6         1 C5E       0.086000
      5 C6           1.7930    -1.1580    -0.5750 c6         1 C5E      -0.115700
      6 C10          2.4810    -0.9830     0.8110 c6         1 C5E       0.161800
      7 N1           1.8900     0.1380     1.5840 n7         1 C5E      -0.859400
      8 C9           1.8840     1.4120     0.8210 c6         1 C5E       0.166800
      9 C8           1.1680     1.2460    -0.5490 c6         1 C5E      -0.076500
     10 C7           1.8770     0.1540    -1.3790 c6         1 C5E      -0.070400
     11 C4          -0.2950     0.8870    -0.3280 cc         1 C5E       0.079400
     12 C3          -1.2190     1.9090    -0.2120 cd         1 C5E      -0.311000
     13 C2          -2.6010     1.6090     0.0160 cd         1 C5E      -0.079000
     14 C1          -2.9610     0.2860     0.1060 cc         1 C5E      -0.328200
     15 H1          -3.9910    -0.0070     0.2740 ha         1 C5E       0.209000
     16 H51C         0.2070    -2.3190     0.3720 h1         1 C5E       0.069700
     17 H52C         0.0180    -2.1040    -1.3670 h1         1 C5E       0.069700
     18 H6           2.3300    -1.9490    -1.1170 hc         1 C5E       0.068700
     19 H101         2.3980    -1.9160     1.3900 h1         1 C5E       0.056200
     20 H102         3.5550    -0.7920     0.6590 h1         1 C5E       0.056200
     21 H71C         2.9250     0.4280    -1.5640 hc         1 C5E       0.055700
     22 H72C         1.3970     0.0410    -2.3620 hc         1 C5E       0.055700
     23 HA           0.9090    -0.1030     1.7680 hn         1 C5E       0.421000
     24 H91C         1.3790     2.1940     1.4090 h1         1 C5E       0.058700
     25 H92C         2.9190     1.7470     0.6540 h1         1 C5E       0.058700
     26 H8           1.2450     2.1960    -1.0970 hc         1 C5E       0.074700
     27 H2          -3.3420     2.4030     0.1140 ha         1 C5E       0.186000
     28 H3          -0.8990     2.9460    -0.2850 ha         1 C5E       0.195000
@<TRIPOS>BOND
     1     1     2 2   
     2     2     3 1   
     3     2    14 1   
     4     3     4 1   
     5     3    11 1   
     6     4     5 1   
     7     4    16 1   
     8     4    17 1   
     9     5     6 1   
    10     5    10 1   
    11     5    18 1   
    12     6     7 1   
    13     6    19 1   
    14     6    20 1   
    15     7     8 1   
    16     7    23 1   
    17     8     9 1   
    18     8    24 1   
    19     8    25 1   
    20     9    10 1   
    21     9    11 1   
    22     9    26 1   
    23    10    21 1   
    24    10    22 1   
    25    11    12 2   
    26    12    13 1   
    27    12    28 1   
    28    13    14 2   
    29    13    27 1   
    30    14    15 1   
@<TRIPOS>SUBSTRUCTURE
     1 C5E         1 TEMP              0 ****  ****    0 ROOT
