@<TRIPOS>MOLECULE
C5F
   31    32     1     0     0
SMALL
No Charge or Current Charge


@<TRIPOS>ATOM
      1 C06        -15.8680     8.7200    32.9900 cx         1 C5F      -0.014400
      2 C07        -15.9320     9.5700    34.2410 cx         1 C5F       0.240000
      3 C08        -16.7100     9.9750    33.0160 cx         1 C5F      -0.122400
      4 C09        -14.6240     8.6100    32.1510 ca         1 C5F      -0.156300
      5 C10        -14.6040     9.0950    30.8300 ca         1 C5F      -0.058500
      6 C11        -13.4700     8.0040    32.6800 ca         1 C5F      -0.058500
      7 C12        -13.4380     8.9810    30.0550 ca         1 C5F      -0.181500
      8 C13        -12.3040     7.8910    31.9030 ca         1 C5F      -0.181500
      9 C14        -12.2820     8.3790    30.5770 ca         1 C5F       0.227100
     10 C15         -9.9570     7.5510    29.9980 c3         1 C5F       0.035000
     11 C16        -10.3250     6.0380    30.0570 c3         1 C5F      -0.075600
     12 C17         -9.0880     7.8100    28.7420 c3         1 C5F      -0.075600
     13 C18         -9.1490     8.0600    31.2570 c          1 C5F       0.708000
     14 O03        -11.1790     8.3060    29.7390 os         1 C5F      -0.346100
     15 O04         -9.3610     9.1870    31.6890 o          1 C5F      -0.706500
     16 O05         -8.3860     7.2790    31.8130 o          1 C5F      -0.706500
     17 Cl1        -14.5330    10.5660    34.7550 cl         1 C5F      -0.198000
     18 Cl2        -16.8040     8.9620    35.6810 cl         1 C5F      -0.198000
     19 H16        -16.4110     7.7780    33.0270 hc         1 C5F       0.084700
     20 H82        -16.3570    10.8420    32.4650 hc         1 C5F       0.084200
     21 H81        -17.7900     9.8590    33.0410 hc         1 C5F       0.084200
     22 H10        -15.4900     9.5580    30.4020 ha         1 C5F       0.094500
     23 H11        -13.4740     7.6240    33.6990 ha         1 C5F       0.094500
     24 H21        -13.4300     9.3590    29.0360 ha         1 C5F       0.131000
     25 H31        -11.4320     7.4330    32.3530 ha         1 C5F       0.131000
     26 H62        -10.8330     5.7710    30.9890 hc         1 C5F       0.027700
     27 H61        -10.9800     5.7640    29.2210 hc         1 C5F       0.027700
     28 H63         -9.4230     5.4180    29.9890 hc         1 C5F       0.027700
     29 H72         -8.8490     8.8770    28.6490 hc         1 C5F       0.027700
     30 H71         -8.1420     7.2580    28.8040 hc         1 C5F       0.027700
     31 H73         -9.6080     7.4940    27.8300 hc         1 C5F       0.027700
@<TRIPOS>BOND
     1     1     2 1   
     2     1     3 1   
     3     1     4 1   
     4     1    19 1   
     5     2     3 1   
     6     2    17 1   
     7     2    18 1   
     8     3    20 1   
     9     3    21 1   
    10     4     5 ar  
    11     4     6 ar  
    12     5     7 ar  
    13     5    22 1   
    14     6     8 ar  
    15     6    23 1   
    16     7     9 ar  
    17     7    24 1   
    18     8     9 ar  
    19     8    25 1   
    20     9    14 1   
    21    10    11 1   
    22    10    12 1   
    23    10    13 1   
    24    10    14 1   
    25    11    26 1   
    26    11    27 1   
    27    11    28 1   
    28    12    29 1   
    29    12    30 1   
    30    12    31 1   
    31    13    15 1   
    32    13    16 1   
@<TRIPOS>SUBSTRUCTURE
     1 C5F         1 TEMP              0 ****  ****    0 ROOT
