@<TRIPOS>MOLECULE
C5F
   31    32     1     0     0
SMALL
bcc


@<TRIPOS>ATOM
      1 C06        -15.7730     8.7110    33.0680 cx         1 C5F      -0.014400
      2 C07        -15.8250     9.7350    34.1570 cx         1 C5F       0.086800
      3 C08        -16.7250     9.8780    32.9890 cx         1 C5F      -0.122400
      4 C09        -14.5830     8.5860    32.1870 ca         1 C5F      -0.156300
      5 C10        -14.5160     9.1730    30.9280 ca         1 C5F      -0.076500
      6 C11        -13.4880     7.8420    32.6120 ca         1 C5F      -0.076500
      7 C12        -13.3960     9.0230    30.1290 ca         1 C5F      -0.199500
      8 C13        -12.3570     7.6830    31.8260 ca         1 C5F      -0.199500
      9 C14        -12.2950     8.2810    30.5650 ca         1 C5F       0.227100
     10 C15        -10.0480     7.5220    29.9990 c3         1 C5F       0.011800
     11 C16        -10.2640     6.0140    29.9690 c3         1 C5F      -0.075600
     12 C17         -9.1220     7.9170    28.8510 c3         1 C5F      -0.075600
     13 C18         -9.4030     8.0620    31.3150 c          1 C5F       0.918600
     14 O03        -11.2750     8.2060    29.6990 os         1 C5F      -0.322900
     15 O04         -9.5440     9.2770    31.5300 o          1 C5F      -0.811800
     16 O05         -8.7620     7.2360    31.9910 o          1 C5F      -0.811800
     17 CL1        -14.4880    10.8530    34.3330 cl         1 C5F      -0.121400
     18 CL2        -16.5120     9.2780    35.7080 cl         1 C5F      -0.121400
     19 H16        -16.2300     7.7660    33.3470 hc         1 C5F       0.084700
     20 H82        -16.5080    10.6820    32.2970 hc         1 C5F       0.084200
     21 H81        -17.7800     9.6870    33.1380 hc         1 C5F       0.084200
     22 H10        -15.3490     9.7550    30.5530 ha         1 C5F       0.112500
     23 H11        -13.5100     7.3680    33.5870 ha         1 C5F       0.112500
     24 H21        -13.3640     9.4890    29.1520 ha         1 C5F       0.149000
     25 H31        -11.5400     7.0950    32.2200 ha         1 C5F       0.149000
     26 H62        -10.8850     5.6450    30.7840 hc         1 C5F       0.027700
     27 H61        -10.7350     5.7220    29.0290 hc         1 C5F       0.027700
     28 H63         -9.3090     5.4960    30.0320 hc         1 C5F       0.027700
     29 H72         -8.9770     8.9970    28.8150 hc         1 C5F       0.027700
     30 H71         -8.1460     7.4500    28.9810 hc         1 C5F       0.027700
     31 H73         -9.5240     7.5890    27.8900 hc         1 C5F       0.027700
@<TRIPOS>BOND
     1     1     2 1   
     2     1     3 1   
     3     1     4 1   
     4     1    19 1   
     5     2     3 1   
     6     2    17 1   
     7     2    18 1   
     8     3    20 1   
     9     3    21 1   
    10     4     5 ar  
    11     4     6 ar  
    12     5     7 ar  
    13     5    22 1   
    14     6     8 ar  
    15     6    23 1   
    16     7     9 ar  
    17     7    24 1   
    18     8     9 ar  
    19     8    25 1   
    20     9    14 1   
    21    10    11 1   
    22    10    12 1   
    23    10    13 1   
    24    10    14 1   
    25    11    26 1   
    26    11    27 1   
    27    11    28 1   
    28    12    29 1   
    29    12    30 1   
    30    12    31 1   
    31    13    15 1   
    32    13    16 1   
@<TRIPOS>SUBSTRUCTURE
     1 C5F         1 TEMP              0 ****  ****    0 ROOT
