@<TRIPOS>MOLECULE
C5G
   59    61     1     0     0
SMALL
No Charge or Current Charge


@<TRIPOS>ATOM
      1 N1          22.7570     4.5740    29.2650 n          1 C5G      -0.299000
      2 C2          23.5260     3.7700    28.4030 c          1 C5G       0.727400
      3 N3          24.6470     3.1620    28.9020 nc         1 C5G      -0.806100
      4 C4          24.9670     3.3210    30.1380 cd         1 C5G       0.786500
      5 C5          24.2420     4.0890    31.0610 cd         1 C5G      -0.518600
      6 C6          23.1220     4.7330    30.5990 cc         1 C5G       0.068600
      7 O2          23.2340     3.6040    27.2300 o          1 C5G      -0.573000
      8 N4          26.1080     2.7850    30.4970 nv         1 C5G      -1.053200
      9 C1D         21.6020     5.3190    28.7000 c5         1 C5G       0.324700
     10 C2D         20.3070     5.0720    29.5540 c5         1 C5G       0.075300
     11 O2D         19.5950     3.8570    29.2190 oh         1 C5G      -0.720000
     12 C3D         19.4980     6.3290    29.1270 c5         1 C5G       0.113300
     13 C4D         20.6250     7.4270    29.0610 c5         1 C5G       0.169300
     14 O4D         21.8660     6.7320    28.7670 os         1 C5G      -0.429000
     15 O3D         18.8810     6.0760    27.8570 oh         1 C5G      -0.729000
     16 C5D         20.8040     8.2880    30.3450 c3         1 C5G       0.206600
     17 O5D         20.9420     7.4520    31.5100 os         1 C5G      -0.630400
     18 PA          21.7930     8.0120    32.7570 p5         1 C5G       1.473800
     19 O1A         21.5030     9.4650    32.9350 o          1 C5G      -0.842500
     20 O2A         21.4710     7.2030    33.9680 o          1 C5G      -0.842500
     21 O3A         23.2080     7.6430    32.1760 os         1 C5G      -0.735800
     22 PB          24.3400     8.5860    32.7270 p5         1 C5G       1.497800
     23 O1B         24.2940     8.7890    34.2040 o          1 C5G      -0.842000
     24 O2B         24.4560     9.8720    31.9710 o          1 C5G      -0.842000
     25 O1          25.5830     7.6110    32.4080 os         1 C5G      -0.602400
     26 C1          25.8620     7.2510    31.0500 c6         1 C5G       0.420300
     27 C7          27.1580     6.3590    30.9520 c6         1 C5G       0.117300
     28 O7          27.1320     5.2480    31.8800 oh         1 C5G      -0.693000
     29 C3          28.4420     7.2140    31.2020 c6         1 C5G       0.134300
     30 O3          29.6250     6.4240    30.9700 oh         1 C5G      -0.653000
     31 C8          28.4590     8.4980    30.3170 c6         1 C5G       0.110300
     32 O4          29.6230     9.2870    30.6220 oh         1 C5G      -0.721000
     33 C9          27.1430     9.2680    30.5980 c6         1 C5G       0.096300
     34 C10         26.9570    10.6170    29.8500 c3         1 C5G       0.205600
     35 O6          25.6640    11.1950    30.1210 oh         1 C5G      -0.779000
     36 O5          26.0210     8.4280    30.2400 os         1 C5G      -0.459000
     37 H5          24.5750     4.1970    32.0850 ha         1 C5G       0.200000
     38 H6          22.4980     5.4150    31.1700 h4         1 C5G       0.258000
     39 H41         26.6260     3.3970    31.1210 hn         1 C5G       0.488500
     40 H42         26.6390     2.4600    29.7030 hn         1 C5G       0.488500
     41 H1D         21.4370     5.0190    27.6580 h2         1 C5G       0.100700
     42 H2D         20.4980     5.1140    30.6330 h1         1 C5G       0.089700
     43 HO'2        20.0640     3.1050    29.6540 ho         1 C5G       0.499000
     44 H3D         18.7370     6.5840    29.8780 h1         1 C5G       0.070700
     45 H4D         20.4240     8.1220    28.2350 h1         1 C5G       0.063700
     46 H3T         18.7420     5.0950    27.8730 ho         1 C5G       0.499000
     47 H5'1        19.9290     8.9420    30.4510 h1         1 C5G       0.060200
     48 H5'2        21.6840     8.9320    30.2070 h1         1 C5G       0.060200
     49 H1          25.0140     6.6710    30.6570 h2         1 C5G       0.073700
     50 H2          27.2080     5.9640    29.9270 h1         1 C5G       0.002700
     51 HOD         26.7500     5.6130    32.7150 ho         1 C5G       0.494000
     52 H3          28.4140     7.5410    32.2540 h1         1 C5G       0.104700
     53 HO'3        29.3960     5.5230    31.2910 ho         1 C5G       0.422000
     54 H4          28.4690     8.1990    29.2570 h1         1 C5G       0.066700
     55 HO'4        30.3560     8.6320    30.7180 ho         1 C5G       0.502000
     56 H7          27.0990     9.4960    31.6730 h1         1 C5G       0.071700
     57 H6'1        27.0770    10.4430    28.7720 h1         1 C5G       0.012700
     58 H6'2        27.7500    11.3070    30.1670 h1         1 C5G       0.012700
     59 HO'6        25.2190    10.5950    30.8190 ho         1 C5G       0.601000
@<TRIPOS>BOND
     1     1     2 1   
     2     1     6 1   
     3     1     9 1   
     4     2     3 1   
     5     2     7 2   
     6     3     4 2   
     7     4     5 1   
     8     4     8 1   
     9     5     6 2   
    10     5    37 1   
    11     6    38 1   
    12     8    39 1   
    13     8    40 1   
    14     9    10 1   
    15     9    14 1   
    16     9    41 1   
    17    10    11 1   
    18    10    12 1   
    19    10    42 1   
    20    11    43 1   
    21    12    13 1   
    22    12    15 1   
    23    12    44 1   
    24    13    14 1   
    25    13    16 1   
    26    13    45 1   
    27    15    46 1   
    28    16    17 1   
    29    16    47 1   
    30    16    48 1   
    31    17    18 1   
    32    18    19 1   
    33    18    20 1   
    34    18    21 1   
    35    21    22 1   
    36    22    23 1   
    37    22    24 1   
    38    22    25 1   
    39    25    26 1   
    40    26    27 1   
    41    26    36 1   
    42    26    49 1   
    43    27    28 1   
    44    27    29 1   
    45    27    50 1   
    46    28    51 1   
    47    29    30 1   
    48    29    31 1   
    49    29    52 1   
    50    30    53 1   
    51    31    32 1   
    52    31    33 1   
    53    31    54 1   
    54    32    55 1   
    55    33    34 1   
    56    33    36 1   
    57    33    56 1   
    58    34    35 1   
    59    34    57 1   
    60    34    58 1   
    61    35    59 1   
@<TRIPOS>SUBSTRUCTURE
     1 C5G         1 TEMP              0 ****  ****    0 ROOT
