@<TRIPOS>MOLECULE
C5G
   59    61     1     0     0
SMALL
abcg2


@<TRIPOS>ATOM
      1 N1          23.0950     4.8760    28.9490 n          1 C5G      -0.299000
      2 C2          23.7090     4.1290    27.9220 c          1 C5G       0.727400
      3 N3          24.7700     3.3620    28.2490 nc         1 C5G      -0.806100
      4 C4          25.2120     3.2970    29.4880 cd         1 C5G       0.786500
      5 C5          24.5990     4.0250    30.5540 cd         1 C5G      -0.518600
      6 C6          23.5610     4.8140    30.2210 cc         1 C5G       0.068600
      7 O2          23.2730     4.1950    26.7820 o          1 C5G      -0.573000
      8 N4          26.2740     2.5330    29.7410 nv         1 C5G      -1.053200
      9 C1D         21.9880     5.7550    28.6390 c5         1 C5G       0.324700
     10 C2D         20.6960     5.4550    29.3930 c5         1 C5G       0.075300
     11 O2D         20.0270     4.3890    28.7800 oh         1 C5G      -0.720000
     12 C3D         19.9820     6.8070    29.2940 c5         1 C5G       0.113300
     13 C4D         21.1500     7.7980    29.3520 c5         1 C5G       0.169300
     14 O4D         22.3270     7.0630    29.0060 os         1 C5G      -0.429000
     15 O3D         19.3430     6.9470    28.0480 oh         1 C5G      -0.729000
     16 C5D         21.3430     8.4930    30.6780 c3         1 C5G       0.206600
     17 O5D         21.4250     7.5410    31.7180 os         1 C5G      -0.630400
     18 PA          21.7190     8.0240    33.2650 p5         1 C5G       1.473800
     19 O1A         21.3140     9.4510    33.4490 o          1 C5G      -0.842500
     20 O2A         21.2150     6.9210    34.1320 o          1 C5G      -0.842500
     21 O3A         23.3680     7.9150    33.3010 os         1 C5G      -0.735800
     22 PB          24.4810     9.1050    33.1590 p5         1 C5G       1.497800
     23 O1B         24.6960     9.8020    34.4580 o          1 C5G      -0.842000
     24 O2B         24.2210     9.9200    31.9200 o          1 C5G      -0.842000
     25 O1          25.8050     8.1310    32.9630 os         1 C5G      -0.602400
     26 C1          25.8380     7.1040    32.0160 c6         1 C5G       0.420300
     27 C7          27.2110     6.4190    32.0370 c6         1 C5G       0.117300
     28 O7          27.5880     6.0050    33.3210 oh         1 C5G      -0.693000
     29 C3          28.2980     7.3350    31.4730 c6         1 C5G       0.134300
     30 O3          29.5470     6.6950    31.4140 oh         1 C5G      -0.653000
     31 C8          27.8690     7.8990    30.1100 c6         1 C5G       0.110300
     32 O4          28.8160     8.8030    29.5980 oh         1 C5G      -0.721000
     33 C9          26.4870     8.5320    30.2570 c6         1 C5G       0.096300
     34 C10         25.8900     9.1120    28.9920 c3         1 C5G       0.205600
     35 O6          24.6980     9.8160    29.2390 oh         1 C5G      -0.779000
     36 O5          25.5700     7.5570    30.7290 os         1 C5G      -0.459000
     37 H5          24.9620     3.9710    31.5700 ha         1 C5G       0.200000
     38 H6          23.0640     5.4350    30.9550 h4         1 C5G       0.258000
     39 H41         26.6490     2.4410    30.6690 hn         1 C5G       0.488500
     40 H42         26.7120     2.0160    28.9980 hn         1 C5G       0.488500
     41 H1D         21.8160     5.6670    27.5640 h2         1 C5G       0.100700
     42 H2D         20.9090     5.2480    30.4480 h1         1 C5G       0.089700
     43 HO'2        19.4310     3.9840    29.4170 ho         1 C5G       0.499000
     44 H3D         19.2770     6.9580    30.1210 h1         1 C5G       0.070700
     45 H4D         20.9830     8.5840    28.6060 h1         1 C5G       0.063700
     46 H3T         18.8490     6.1370    27.8780 ho         1 C5G       0.499000
     47 H5'1        20.4940     9.1680    30.8270 h1         1 C5G       0.060200
     48 H5'2        22.2420     9.1100    30.6280 h1         1 C5G       0.060200
     49 H1          25.0620     6.3630    32.2350 h2         1 C5G       0.073700
     50 H2          27.1200     5.5570    31.3550 h1         1 C5G       0.002700
     51 HOD         27.0130     5.2830    33.5910 ho         1 C5G       0.494000
     52 H3          28.4340     8.1790    32.1620 h1         1 C5G       0.104700
     53 HO'3        29.4760     5.9310    30.8300 ho         1 C5G       0.422000
     54 H4          27.8110     7.0760    29.3850 h1         1 C5G       0.066700
     55 HO'4        28.9100     9.5350    30.2190 ho         1 C5G       0.502000
     56 H7          26.5780     9.3540    30.9820 h1         1 C5G       0.071700
     57 H6'1        25.7090     8.2990    28.2750 h1         1 C5G       0.012700
     58 H6'2        26.6340     9.7740    28.5350 h1         1 C5G       0.012700
     59 HO'6        24.5210     9.8340    30.2040 ho         1 C5G       0.601000
@<TRIPOS>BOND
     1     1     2 1   
     2     1     6 1   
     3     1     9 1   
     4     2     3 1   
     5     2     7 2   
     6     3     4 2   
     7     4     5 1   
     8     4     8 1   
     9     5     6 2   
    10     5    37 1   
    11     6    38 1   
    12     8    39 1   
    13     8    40 1   
    14     9    10 1   
    15     9    14 1   
    16     9    41 1   
    17    10    11 1   
    18    10    12 1   
    19    10    42 1   
    20    11    43 1   
    21    12    13 1   
    22    12    15 1   
    23    12    44 1   
    24    13    14 1   
    25    13    16 1   
    26    13    45 1   
    27    15    46 1   
    28    16    17 1   
    29    16    47 1   
    30    16    48 1   
    31    17    18 1   
    32    18    19 1   
    33    18    20 1   
    34    18    21 1   
    35    21    22 1   
    36    22    23 1   
    37    22    24 1   
    38    22    25 1   
    39    25    26 1   
    40    26    27 1   
    41    26    36 1   
    42    26    49 1   
    43    27    28 1   
    44    27    29 1   
    45    27    50 1   
    46    28    51 1   
    47    29    30 1   
    48    29    31 1   
    49    29    52 1   
    50    30    53 1   
    51    31    32 1   
    52    31    33 1   
    53    31    54 1   
    54    32    55 1   
    55    33    34 1   
    56    33    36 1   
    57    33    56 1   
    58    34    35 1   
    59    34    57 1   
    60    34    58 1   
    61    35    59 1   
@<TRIPOS>SUBSTRUCTURE
     1 C5G         1 TEMP              0 ****  ****    0 ROOT
