@<TRIPOS>MOLECULE
C5H
   85    88     1     0     0
SMALL
No Charge or Current Charge


@<TRIPOS>ATOM
      1 CBI         -7.1670    -2.1480     0.9580 c6         1 C5H      -0.070400
      2 CBH         -8.4780    -2.5740     0.2530 c6         1 C5H      -0.072400
      3 CBM         -8.1930    -3.1680    -1.1470 c6         1 C5H      -0.071400
      4 CBL         -7.3870    -2.1740    -2.0160 c6         1 C5H      -0.072400
      5 CBK         -6.0760    -1.7410    -1.3130 c6         1 C5H      -0.070400
      6 CBJ         -6.3510    -1.1400     0.0980 c6         1 C5H      -0.051700
      7 CBG         -5.0400    -0.7230     0.8390 c3         1 C5H      -0.047400
      8 CAA         -4.1670     0.3720     0.1670 c3         1 C5H       0.028300
      9 CAB         -4.9340     1.7410     0.0520 c          1 C5H       0.688000
     10 OAD         -4.7460     2.6070     0.8990 o          1 C5H      -0.729000
     11 OAC         -5.6070     1.9440    -0.9500 o          1 C5H      -0.729000
     12 O3          -2.9570     0.4520     0.9760 os         1 C5H      -0.432000
     13 C3          -1.8540     1.2890     0.5160 c6         1 C5H       0.211300
     14 C2          -0.9540     0.5820    -0.5640 c6         1 C5H       0.122300
     15 O2          -1.6590     0.2430    -1.7850 oh         1 C5H      -0.702000
     16 C4          -0.9960     1.6820     1.7590 c6         1 C5H       0.120300
     17 O4          -0.6320     0.4940     2.5030 oh         1 C5H      -0.697000
     18 C5           0.2490     2.5020     1.2970 c6         1 C5H       0.136300
     19 C6           1.1800     2.9090     2.4880 c3         1 C5H       0.163600
     20 O6           2.2950     3.7270     2.0850 oh         1 C5H      -0.713000
     21 O5           1.0190     1.7470     0.3320 os         1 C5H      -0.486000
     22 C1           0.2960     1.4660    -0.8800 c6         1 C5H       0.362300
     23 O1           1.1630     0.7490    -1.7740 os         1 C5H      -0.456000
     24 CAQ          2.2160     1.5270    -2.3900 c6         1 C5H       0.180300
     25 CAR          1.8360     1.8070    -3.8660 c6         1 C5H      -0.098400
     26 CAS          2.9860     2.4980    -4.6360 c6         1 C5H      -0.073400
     27 CAT          4.2860     1.6630    -4.5520 c6         1 C5H      -0.073400
     28 CAU          4.7050     1.4380    -3.0790 c6         1 C5H      -0.102400
     29 CAV          3.5730     0.7730    -2.2500 c6         1 C5H       0.165300
     30 OAW          3.9530     0.7460    -0.8580 os         1 C5H      -0.448000
     31 CAX          4.7040    -0.4010    -0.4200 c6         1 C5H       0.363300
     32 OAY          3.8420    -1.5630    -0.4120 os         1 C5H      -0.456000
     33 CAZ          2.6980    -1.4580     0.4870 c6         1 C5H       0.061300
     34 CBN          1.7310    -2.6600     0.2400 c3         1 C5H       0.311000
     35 FBP          1.2100    -2.6150    -1.0080 f          1 C5H      -0.111667
     36 FBQ          2.3420    -3.8610     0.3710 f          1 C5H      -0.111667
     37 FBO          0.6870    -2.6420     1.1020 f          1 C5H      -0.111667
     38 CBA          3.1690    -1.2910     1.9670 c6         1 C5H       0.156300
     39 OBB          3.8830    -2.4450     2.4580 oh         1 C5H      -0.704000
     40 CBC          4.0980    -0.0420     2.0460 c6         1 C5H       0.173300
     41 OBD          4.6310     0.1060     3.3790 oh         1 C5H      -0.657000
     42 CBE          5.2700    -0.1340     1.0150 c6         1 C5H       0.117300
     43 OBF          6.0610     1.0810     1.0630 oh         1 C5H      -0.711000
     44 H1          -7.4080    -1.7010     1.9320 hc         1 C5H       0.037450
     45 H2          -6.5580    -3.0390     1.1670 hc         1 C5H       0.037450
     46 H3          -9.0090    -3.3130     0.8690 hc         1 C5H       0.030450
     47 H4          -9.1470    -1.7070     0.1590 hc         1 C5H       0.030450
     48 H5          -7.6330    -4.1080    -1.0440 hc         1 C5H       0.021200
     49 H6          -9.1380    -3.4190    -1.6460 hc         1 C5H       0.021200
     50 H7          -7.1540    -2.6330    -2.9870 hc         1 C5H       0.030450
     51 H8          -8.0010    -1.2870    -2.2300 hc         1 C5H       0.030450
     52 H9          -5.4030    -2.6060    -1.2250 hc         1 C5H       0.037450
     53 H10         -5.5610    -1.0090    -1.9480 hc         1 C5H       0.037450
     54 H11         -6.9560    -0.2310    -0.0200 hc         1 C5H       0.077700
     55 H12         -5.2960    -0.3720     1.8460 hc         1 C5H       0.032700
     56 H13         -4.4170    -1.6150     0.9820 hc         1 C5H       0.032700
     57 H14         -3.9250     0.0400    -0.8470 h1         1 C5H       0.031700
     58 H16         -2.2590     2.2140     0.0800 h1         1 C5H       0.064700
     59 H17         -0.5740    -0.3430    -0.1070 h1         1 C5H       0.071700
     60 H18         -0.9670    -0.0550    -2.4200 ho         1 C5H       0.496000
     61 H19         -1.6160     2.3390     2.3890 h1         1 C5H       0.099700
     62 H20         -1.4390    -0.0730     2.4980 ho         1 C5H       0.484000
     63 H21         -0.0970     3.4310     0.8190 h1         1 C5H       0.059700
     64 H22          0.5710     3.4490     3.2260 h1         1 C5H       0.025700
     65 H23          1.5450     1.9950     2.9750 h1         1 C5H       0.025700
     66 H24          2.8090     3.9330     2.8990 ho         1 C5H       0.496000
     67 H25         -0.0270     2.4060    -1.3520 h2         1 C5H       0.029700
     68 H26          2.3180     2.4910    -1.8680 h1         1 C5H       0.062700
     69 H27          1.5800     0.8610    -4.3640 hc         1 C5H       0.054700
     70 H28          0.9350     2.4350    -3.9050 hc         1 C5H       0.054700
     71 H29          2.7000     2.6370    -5.6870 hc         1 C5H       0.041200
     72 H30          3.1610     3.5020    -4.2240 hc         1 C5H       0.041200
     73 H31          4.1390     0.6940    -5.0500 hc         1 C5H       0.037200
     74 H32          5.0930     2.1740    -5.0940 hc         1 C5H       0.037200
     75 H33          5.6080     0.8140    -3.0470 hc         1 C5H       0.045200
     76 H34          4.9740     2.4020    -2.6260 hc         1 C5H       0.045200
     77 H35          3.4210    -0.2550    -2.6110 h1         1 C5H       0.056700
     78 H36          5.5460    -0.5750    -1.1070 h2         1 C5H       0.059700
     79 H37          2.1250    -0.5600     0.2180 h1         1 C5H       0.132700
     80 H38          2.2850    -1.0990     2.5950 h1         1 C5H       0.063700
     81 H39          4.3840    -2.1120     3.2400 ho         1 C5H       0.509000
     82 H40          3.4880     0.8390     1.7880 h1         1 C5H       0.089700
     83 H41          5.3930     0.7230     3.2820 ho         1 C5H       0.456000
     84 H42          5.9000    -0.9950     1.2830 h1         1 C5H       0.068700
     85 H43          5.6020     1.7270     0.4740 ho         1 C5H       0.502000
@<TRIPOS>BOND
     1     1     2 1   
     2     1     6 1   
     3     1    44 1   
     4     1    45 1   
     5     2     3 1   
     6     2    46 1   
     7     2    47 1   
     8     3     4 1   
     9     3    48 1   
    10     3    49 1   
    11     4     5 1   
    12     4    50 1   
    13     4    51 1   
    14     5     6 1   
    15     5    52 1   
    16     5    53 1   
    17     6     7 1   
    18     6    54 1   
    19     7     8 1   
    20     7    55 1   
    21     7    56 1   
    22     8     9 1   
    23     8    12 1   
    24     8    57 1   
    25     9    10 1   
    26     9    11 1   
    27    12    13 1   
    28    13    14 1   
    29    13    16 1   
    30    13    58 1   
    31    14    15 1   
    32    14    22 1   
    33    14    59 1   
    34    15    60 1   
    35    16    17 1   
    36    16    18 1   
    37    16    61 1   
    38    17    62 1   
    39    18    19 1   
    40    18    21 1   
    41    18    63 1   
    42    19    20 1   
    43    19    64 1   
    44    19    65 1   
    45    20    66 1   
    46    21    22 1   
    47    22    23 1   
    48    22    67 1   
    49    23    24 1   
    50    24    25 1   
    51    24    29 1   
    52    24    68 1   
    53    25    26 1   
    54    25    69 1   
    55    25    70 1   
    56    26    27 1   
    57    26    71 1   
    58    26    72 1   
    59    27    28 1   
    60    27    73 1   
    61    27    74 1   
    62    28    29 1   
    63    28    75 1   
    64    28    76 1   
    65    29    30 1   
    66    29    77 1   
    67    30    31 1   
    68    31    32 1   
    69    31    42 1   
    70    31    78 1   
    71    32    33 1   
    72    33    34 1   
    73    33    38 1   
    74    33    79 1   
    75    34    35 1   
    76    34    36 1   
    77    34    37 1   
    78    38    39 1   
    79    38    40 1   
    80    38    80 1   
    81    39    81 1   
    82    40    41 1   
    83    40    42 1   
    84    40    82 1   
    85    41    83 1   
    86    42    43 1   
    87    42    84 1   
    88    43    85 1   
@<TRIPOS>SUBSTRUCTURE
     1 C5H         1 TEMP              0 ****  ****    0 ROOT
