@<TRIPOS>MOLECULE
C5H
   85    88     1     0     0
SMALL
abcg2


@<TRIPOS>ATOM
      1 CBI         -7.3150    -2.3170     0.3680 c6         1 C5H      -0.070400
      2 CBH         -8.7940    -2.1760     0.0240 c6         1 C5H      -0.072400
      3 CBM         -8.9910    -1.8890    -1.4600 c6         1 C5H      -0.071400
      4 CBL         -8.1930    -0.6610    -1.8850 c6         1 C5H      -0.072400
      5 CBK         -6.7150    -0.8010    -1.5330 c6         1 C5H      -0.070400
      6 CBJ         -6.5090    -1.0840    -0.0450 c6         1 C5H      -0.051700
      7 CBG         -5.0400    -1.2680     0.3300 c3         1 C5H      -0.047400
      8 CAA         -4.1210    -0.0810     0.0550 c3         1 C5H       0.028300
      9 CAB         -4.6490     1.1870     0.7650 c          1 C5H       0.688000
     10 OAD         -4.4070     1.2970     1.9830 o          1 C5H      -0.729000
     11 OAC         -5.3090     1.9760     0.0590 o          1 C5H      -0.729000
     12 O3          -2.8400    -0.4750     0.5150 os         1 C5H      -0.432000
     13 C3          -1.8090     0.4410     0.2780 c6         1 C5H       0.211300
     14 C2          -0.7930    -0.1340    -0.7010 c6         1 C5H       0.122300
     15 O2          -1.4410    -0.3680    -1.9270 oh         1 C5H      -0.702000
     16 C4          -1.1120     0.8240     1.5790 c6         1 C5H       0.120300
     17 O4          -0.6340    -0.3560     2.1800 oh         1 C5H      -0.697000
     18 C5           0.0140     1.8060     1.2470 c6         1 C5H       0.136300
     19 C6           0.7810     2.2270     2.4830 c3         1 C5H       0.163600
     20 O6           1.6900     3.2470     2.1470 oh         1 C5H      -0.713000
     21 O5           0.9260     1.2390     0.3330 os         1 C5H      -0.486000
     22 C1           0.3530     0.8640    -0.8900 c6         1 C5H       0.362300
     23 O1           1.3230     0.2460    -1.6500 os         1 C5H      -0.456000
     24 CAQ          2.1550     1.0750    -2.4470 c6         1 C5H       0.180300
     25 CAR          1.7700     0.9160    -3.9130 c6         1 C5H      -0.098400
     26 CAS          2.6890     1.7130    -4.8310 c6         1 C5H      -0.073400
     27 CAT          4.1460     1.3270    -4.6040 c6         1 C5H      -0.073400
     28 CAU          4.5260     1.4940    -3.1370 c6         1 C5H      -0.102400
     29 CAV          3.6100     0.6850    -2.2240 c6         1 C5H       0.165300
     30 OAW          3.9270     0.9310    -0.8680 os         1 C5H      -0.448000
     31 CAX          4.8780     0.1080    -0.2950 c6         1 C5H       0.363300
     32 OAY          4.3430    -1.1360     0.0890 os         1 C5H      -0.456000
     33 CAZ          3.3350    -1.0500     1.0700 c6         1 C5H       0.061300
     34 CBN          2.8040    -2.4610     1.2230 c3         1 C5H       0.311000
     35 FBP          2.1770    -2.8680     0.1100 f          1 C5H      -0.111667
     36 FBQ          3.7550    -3.3670     1.4760 f          1 C5H      -0.111667
     37 FBO          1.9150    -2.5350     2.2220 f          1 C5H      -0.111667
     38 CBA          3.8570    -0.4250     2.3690 c6         1 C5H       0.156300
     39 OBB          4.8870    -1.1660     2.9680 oh         1 C5H      -0.704000
     40 CBC          4.3880     0.9570     2.0000 c6         1 C5H       0.173300
     41 OBD          4.8690     1.5780     3.1650 oh         1 C5H      -0.657000
     42 CBE          5.4640     0.8280     0.9250 c6         1 C5H       0.117300
     43 OBF          5.9090     2.1200     0.6030 oh         1 C5H      -0.711000
     44 H1          -7.1920    -2.4980     1.4400 hc         1 C5H       0.037450
     45 H2          -6.9070    -3.1980    -0.1430 hc         1 C5H       0.037450
     46 H3          -9.3370    -3.0790     0.3140 hc         1 C5H       0.030450
     47 H4          -9.2220    -1.3550     0.6110 hc         1 C5H       0.030450
     48 H5          -8.6600    -2.7560    -2.0430 hc         1 C5H       0.021200
     49 H6         -10.0520    -1.7500    -1.6840 hc         1 C5H       0.021200
     50 H7          -8.3090    -0.4840    -2.9580 hc         1 C5H       0.030450
     51 H8          -8.5980     0.2230    -1.3800 hc         1 C5H       0.030450
     52 H9          -6.2780    -1.6210    -2.1160 hc         1 C5H       0.037450
     53 H10         -6.1830     0.1090    -1.8160 hc         1 C5H       0.037450
     54 H11         -6.9090    -0.2270     0.5130 hc         1 C5H       0.077700
     55 H12         -4.9770    -1.5010     1.3980 hc         1 C5H       0.032700
     56 H13         -4.6470    -2.1430    -0.2020 hc         1 C5H       0.032700
     57 H14         -4.0790     0.1120    -1.0240 h1         1 C5H       0.031700
     58 H16         -2.2030     1.3720    -0.1590 h1         1 C5H       0.064700
     59 H17         -0.3740    -1.0630    -0.2890 h1         1 C5H       0.071700
     60 H18         -0.8170    -0.8070    -2.5130 ho         1 C5H       0.496000
     61 H19         -1.8430     1.3360     2.2160 h1         1 C5H       0.099700
     62 H20         -0.3910    -0.1720     3.0910 ho         1 C5H       0.484000
     63 H21         -0.4530     2.7070     0.8130 h1         1 C5H       0.059700
     64 H22          0.0530     2.5690     3.2320 h1         1 C5H       0.025700
     65 H23          1.2960     1.3570     2.9060 h1         1 C5H       0.025700
     66 H24          2.3120     3.3450     2.8740 ho         1 C5H       0.496000
     67 H25         -0.0410     1.7630    -1.4040 h2         1 C5H       0.029700
     68 H26          2.0340     2.1270    -2.1520 h1         1 C5H       0.062700
     69 H27          1.8190    -0.1460    -4.1780 hc         1 C5H       0.054700
     70 H28          0.7300     1.2280    -4.0480 hc         1 C5H       0.054700
     71 H29          2.4070     1.5460    -5.8730 hc         1 C5H       0.041200
     72 H30          2.5620     2.7840    -4.6430 hc         1 C5H       0.041200
     73 H31          4.3000     0.2870    -4.9080 hc         1 C5H       0.037200
     74 H32          4.8050     1.9340    -5.2290 hc         1 C5H       0.037200
     75 H33          5.5640     1.1910    -2.9770 hc         1 C5H       0.045200
     76 H34          4.4600     2.5510    -2.8550 hc         1 C5H       0.045200
     77 H35          3.7140    -0.3840    -2.4590 h1         1 C5H       0.056700
     78 H36          5.6770    -0.1420    -1.0050 h2         1 C5H       0.059700
     79 H37          2.4900    -0.4390     0.7300 h1         1 C5H       0.132700
     80 H38          3.0110    -0.2950     3.0560 h1         1 C5H       0.063700
     81 H39          4.5060    -1.8170     3.5640 ho         1 C5H       0.509000
     82 H40          3.5500     1.5270     1.5770 h1         1 C5H       0.089700
     83 H41          5.2210     2.4390     2.9160 ho         1 C5H       0.456000
     84 H42          6.2870     0.2120     1.3080 h1         1 C5H       0.068700
     85 H43          6.7300     2.0530     0.1050 ho         1 C5H       0.502000
@<TRIPOS>BOND
     1     1     2 1   
     2     1     6 1   
     3     1    44 1   
     4     1    45 1   
     5     2     3 1   
     6     2    46 1   
     7     2    47 1   
     8     3     4 1   
     9     3    48 1   
    10     3    49 1   
    11     4     5 1   
    12     4    50 1   
    13     4    51 1   
    14     5     6 1   
    15     5    52 1   
    16     5    53 1   
    17     6     7 1   
    18     6    54 1   
    19     7     8 1   
    20     7    55 1   
    21     7    56 1   
    22     8     9 1   
    23     8    12 1   
    24     8    57 1   
    25     9    10 1   
    26     9    11 1   
    27    12    13 1   
    28    13    14 1   
    29    13    16 1   
    30    13    58 1   
    31    14    15 1   
    32    14    22 1   
    33    14    59 1   
    34    15    60 1   
    35    16    17 1   
    36    16    18 1   
    37    16    61 1   
    38    17    62 1   
    39    18    19 1   
    40    18    21 1   
    41    18    63 1   
    42    19    20 1   
    43    19    64 1   
    44    19    65 1   
    45    20    66 1   
    46    21    22 1   
    47    22    23 1   
    48    22    67 1   
    49    23    24 1   
    50    24    25 1   
    51    24    29 1   
    52    24    68 1   
    53    25    26 1   
    54    25    69 1   
    55    25    70 1   
    56    26    27 1   
    57    26    71 1   
    58    26    72 1   
    59    27    28 1   
    60    27    73 1   
    61    27    74 1   
    62    28    29 1   
    63    28    75 1   
    64    28    76 1   
    65    29    30 1   
    66    29    77 1   
    67    30    31 1   
    68    31    32 1   
    69    31    42 1   
    70    31    78 1   
    71    32    33 1   
    72    33    34 1   
    73    33    38 1   
    74    33    79 1   
    75    34    35 1   
    76    34    36 1   
    77    34    37 1   
    78    38    39 1   
    79    38    40 1   
    80    38    80 1   
    81    39    81 1   
    82    40    41 1   
    83    40    42 1   
    84    40    82 1   
    85    41    83 1   
    86    42    43 1   
    87    42    84 1   
    88    43    85 1   
@<TRIPOS>SUBSTRUCTURE
     1 C5H         1 TEMP              0 ****  ****    0 ROOT
