@<TRIPOS>MOLECULE
C5I
   38    41     1     0     0
SMALL
bcc


@<TRIPOS>ATOM
      1 C1           1.6900    -2.1230    -0.8720 cc         1 C5I      -0.165200
      2 C2           2.6110    -3.1340    -0.9240 cd         1 C5I      -0.120100
      3 N3           3.7920    -2.7100    -0.3940 na         1 C5I      -0.244100
      4 C5           3.6710    -1.4190     0.0140 ca         1 C5I       0.426800
      5 C6           2.3510    -1.0160    -0.2750 ca         1 C5I      -0.203100
      6 C7           2.0910     0.3100     0.0980 ca         1 C5I       0.002800
      7 C8           3.1000     1.0730     0.6870 ca         1 C5I      -0.142900
      8 C9           4.3800     0.5290     0.9140 ca         1 C5I       0.509200
      9 N10          4.6570    -0.7060     0.5780 nb         1 C5I      -0.686000
     10 N11          2.5950     2.3110     0.9480 nc         1 C5I      -0.193400
     11 N12          1.3820     2.3400     0.5620 nd         1 C5I      -0.187400
     12 N13          1.0430     1.1530     0.0440 na         1 C5I       0.102900
     13 C14         -0.2940     0.9330    -0.4750 c6         1 C5I       0.052000
     14 C16         -0.6060     1.8640    -1.6420 c6         1 C5I      -0.089400
     15 C17         -2.0370     1.6430    -2.1170 c6         1 C5I      -0.098400
     16 C18         -3.0200     1.7610    -0.9610 c6         1 C5I       0.098000
     17 N19         -2.6510     0.8410     0.1060 n          1 C5I      -0.478800
     18 C20         -1.3280     1.0810     0.6460 c6         1 C5I       0.080000
     19 C21         -3.3490    -0.2460     0.4810 c          1 C5I       0.679100
     20 O22         -2.9630    -1.0480     1.3140 o          1 C5I      -0.571100
     21 C23         -4.7050    -0.4440    -0.1910 c3         1 C5I      -0.099300
     22 C24         -5.3630    -1.6210     0.3460 c1         1 C5I       0.218700
     23 N25         -5.9180    -2.5440     0.7480 n1         1 C5I      -0.344800
     24 H1           0.6730    -2.1820    -1.2260 ha         1 C5I       0.157000
     25 H2           2.5090    -4.1360    -1.3060 h4         1 C5I       0.170000
     26 HN3          4.6290    -3.2650    -0.3170 hn         1 C5I       0.313700
     27 H9           5.1630     1.1230     1.3700 h4         1 C5I       0.041100
     28 H14         -0.3160    -0.1010    -0.8260 h1         1 C5I       0.076700
     29 H16         -0.4790     2.9010    -1.3190 hc         1 C5I       0.065700
     30 H16A         0.1010     1.6900    -2.4550 hc         1 C5I       0.065700
     31 H17         -2.2930     2.3760    -2.8840 hc         1 C5I       0.055200
     32 H17A        -2.1330     0.6530    -2.5730 hc         1 C5I       0.055200
     33 H18         -3.0040     2.7760    -0.5540 h1         1 C5I       0.056200
     34 H18A        -4.0350     1.5770    -1.3000 h1         1 C5I       0.056200
     35 H20         -1.1220     0.3840     1.4540 h1         1 C5I       0.084200
     36 H20A        -1.2910     2.0950     1.0540 h1         1 C5I       0.084200
     37 H23         -5.3610     0.4160    -0.0380 hc         1 C5I       0.086700
     38 H23A        -4.6000    -0.5750    -1.2710 hc         1 C5I       0.086700
@<TRIPOS>BOND
     1     1     2 2   
     2     1     5 1   
     3     1    24 1   
     4     2     3 1   
     5     2    25 1   
     6     3     4 1   
     7     3    26 1   
     8     4     5 ar  
     9     4     9 ar  
    10     5     6 ar  
    11     6     7 ar  
    12     6    12 1   
    13     7     8 ar  
    14     7    10 1   
    15     8     9 ar  
    16     8    27 1   
    17    10    11 2   
    18    11    12 1   
    19    12    13 1   
    20    13    14 1   
    21    13    18 1   
    22    13    28 1   
    23    14    15 1   
    24    14    29 1   
    25    14    30 1   
    26    15    16 1   
    27    15    31 1   
    28    15    32 1   
    29    16    17 1   
    30    16    33 1   
    31    16    34 1   
    32    17    18 1   
    33    17    19 1   
    34    18    35 1   
    35    18    36 1   
    36    19    20 2   
    37    19    21 1   
    38    21    22 1   
    39    21    37 1   
    40    21    38 1   
    41    22    23 3   
@<TRIPOS>SUBSTRUCTURE
     1 C5I         1 TEMP              0 ****  ****    0 ROOT
