@<TRIPOS>MOLECULE
C5I
   38    41     1     0     0
SMALL
No Charge or Current Charge


@<TRIPOS>ATOM
      1 C1           1.5870    -1.8180    -0.9450 cc         1 C5I      -0.215200
      2 C2           2.3140    -2.9970    -0.9940 cd         1 C5I      -0.170100
      3 N3           3.5660    -2.7830    -0.3600 na         1 C5I      -0.294400
      4 C5           3.6020    -1.4730     0.0790 ca         1 C5I       0.361500
      5 C6           2.4120    -0.8610    -0.2660 ca         1 C5I      -0.137800
      6 C7           2.2190     0.4810     0.0810 ca         1 C5I       0.002800
      7 C8           3.1940     1.1460     0.7530 ca         1 C5I      -0.077600
      8 C9           4.3920     0.4730     1.0800 ca         1 C5I       0.443900
      9 N10          4.5980    -0.8370     0.7430 nb         1 C5I      -0.686000
     10 N11          2.7970     2.4570     1.0160 nc         1 C5I      -0.193400
     11 N12          1.5690     2.6000     0.5090 nd         1 C5I      -0.187400
     12 N13          1.2180     1.3930    -0.0750 na         1 C5I       0.073600
     13 C14         -0.0870     1.1270    -0.7270 c6         1 C5I       0.081300
     14 C16         -0.7450     2.4030    -1.2990 c6         1 C5I      -0.089400
     15 C17         -2.0670     2.0180    -1.9890 c6         1 C5I      -0.098400
     16 C18         -3.0300     1.2980    -1.0150 c6         1 C5I       0.098000
     17 N19         -2.4160     0.1440    -0.2810 n          1 C5I      -0.411800
     18 C20         -1.0460     0.4190     0.2630 c6         1 C5I       0.080000
     19 C21         -3.2400    -0.7840     0.4070 c          1 C5I       0.612100
     20 O22         -2.8560    -1.3030     1.4480 o          1 C5I      -0.571100
     21 C23         -4.5860    -1.1850    -0.1910 c3         1 C5I      -0.099300
     22 C24         -5.6740    -0.4360     0.4290 c1         1 C5I       0.307900
     23 N25         -6.5500     0.1730     0.8960 n1         1 C5I      -0.434000
     24 H1           0.5860    -1.6860    -1.3500 ha         1 C5I       0.207000
     25 H2           2.0390    -3.9590    -1.4250 h4         1 C5I       0.220000
     26 HN3          4.3120    -3.4580    -0.2390 hn         1 C5I       0.364000
     27 H9           5.1930     0.9790     1.6180 h4         1 C5I       0.041100
     28 H14          0.0990     0.4540    -1.5730 h1         1 C5I       0.076700
     29 H16         -0.9420     3.1330    -0.5010 hc         1 C5I       0.065700
     30 H16A        -0.0720     2.8870    -2.0210 hc         1 C5I       0.065700
     31 H17         -2.5540     2.9150    -2.3950 hc         1 C5I       0.055200
     32 H17A        -1.8600     1.3630    -2.8470 hc         1 C5I       0.055200
     33 H18         -3.3880     2.0260    -0.2720 h1         1 C5I       0.056200
     34 H18A        -3.9060     0.9780    -1.5930 h1         1 C5I       0.056200
     35 H20         -0.5820    -0.5270     0.5790 h1         1 C5I       0.084200
     36 H20A        -1.1470     1.0390     1.1660 h1         1 C5I       0.084200
     37 H23         -4.6150    -0.9930    -1.2670 hc         1 C5I       0.086700
     38 H23A        -4.7620    -2.2470     0.0040 hc         1 C5I       0.086700
@<TRIPOS>BOND
     1     1     2 2   
     2     1     5 1   
     3     1    24 1   
     4     2     3 1   
     5     2    25 1   
     6     3     4 1   
     7     3    26 1   
     8     4     5 ar  
     9     4     9 ar  
    10     5     6 ar  
    11     6     7 ar  
    12     6    12 1   
    13     7     8 ar  
    14     7    10 1   
    15     8     9 ar  
    16     8    27 1   
    17    10    11 2   
    18    11    12 1   
    19    12    13 1   
    20    13    14 1   
    21    13    18 1   
    22    13    28 1   
    23    14    15 1   
    24    14    29 1   
    25    14    30 1   
    26    15    16 1   
    27    15    31 1   
    28    15    32 1   
    29    16    17 1   
    30    16    33 1   
    31    16    34 1   
    32    17    18 1   
    33    17    19 1   
    34    18    35 1   
    35    18    36 1   
    36    19    20 2   
    37    19    21 1   
    38    21    22 1   
    39    21    37 1   
    40    21    38 1   
    41    22    23 3   
@<TRIPOS>SUBSTRUCTURE
     1 C5I         1 TEMP              0 ****  ****    0 ROOT
