@<TRIPOS>MOLECULE
C5J
   12    11     1     0     0
SMALL
abcg2


@<TRIPOS>ATOM
      1 C2           1.2530     0.0620     0.0170 c          1 C5J       0.672100
      2 C5          -1.2250     0.0740     0.0450 c          1 C5J       0.672100
      3 N1           2.2760    -0.8160     0.0450 nt         1 C5J      -0.634500
      4 N6          -2.2550    -0.7970     0.0520 nt         1 C5J      -0.634500
      5 N4           0.0110    -0.5600     0.0210 ns         1 C5J      -0.506500
      6 O3           1.4100     1.2680    -0.0120 o          1 C5J      -0.572600
      7 O7          -1.3720     1.2810     0.0730 o          1 C5J      -0.572600
      8 H1           2.1560    -1.8130     0.0750 hn         1 C5J       0.319000
      9 H2           3.2170    -0.4640     0.0310 hn         1 C5J       0.319000
     10 H3          -2.1420    -1.7910    -0.0530 hn         1 C5J       0.319000
     11 H4          -3.1920    -0.4360     0.0080 hn         1 C5J       0.319000
     12 H5           0.0060    -1.5690     0.0230 hn         1 C5J       0.300500
@<TRIPOS>BOND
     1     1     3 1   
     2     1     5 1   
     3     1     6 2   
     4     2     4 1   
     5     2     5 1   
     6     2     7 2   
     7     3     8 1   
     8     3     9 1   
     9     4    10 1   
    10     4    11 1   
    11     5    12 1   
@<TRIPOS>SUBSTRUCTURE
     1 C5J         1 TEMP              0 ****  ****    0 ROOT
