@<TRIPOS>MOLECULE
C5J
   12    11     1     0     0
SMALL
No Charge or Current Charge


@<TRIPOS>ATOM
      1 C2           1.2430     0.0680     0.0330 c          1 C5J       0.672100
      2 C5          -1.2140     0.0790     0.0250 c          1 C5J       0.672100
      3 N1           2.2390    -0.8300     0.0330 nt         1 C5J      -0.634500
      4 N6          -2.2180    -0.8100     0.0180 nt         1 C5J      -0.634500
      5 N4           0.0120    -0.5050     0.0270 ns         1 C5J      -0.506500
      6 O3           1.4670     1.2620     0.0380 o          1 C5J      -0.572600
      7 O7          -1.4280     1.2750     0.0290 o          1 C5J      -0.572600
      8 H1           2.0440    -1.8190     0.0290 hn         1 C5J       0.319000
      9 H2           3.1920    -0.4990     0.0380 hn         1 C5J       0.319000
     10 H3          -2.0320    -1.8010     0.0150 hn         1 C5J       0.319000
     11 H4          -3.1680    -0.4700     0.0170 hn         1 C5J       0.319000
     12 H5           0.0070    -1.5100     0.0230 hn         1 C5J       0.300500
@<TRIPOS>BOND
     1     1     3 1   
     2     1     5 1   
     3     1     6 2   
     4     2     4 1   
     5     2     5 1   
     6     2     7 2   
     7     3     8 1   
     8     3     9 1   
     9     4    10 1   
    10     4    11 1   
    11     5    12 1   
@<TRIPOS>SUBSTRUCTURE
     1 C5J         1 TEMP              0 ****  ****    0 ROOT
