@<TRIPOS>MOLECULE
C5K
   88    91     1     0     0
SMALL
abcg2


@<TRIPOS>ATOM
      1 C4          -1.4980    -1.4690    -1.7280 c6         1 C5K       0.125300
      2 C5          -0.2400    -2.3180    -1.5290 c6         1 C5K       0.142300
      3 C6           0.4900    -2.5600    -2.8320 c3         1 C5K       0.162600
      4 C3          -2.1640    -1.2410    -0.3750 c6         1 C5K       0.213300
      5 CBI         -4.6200     1.6560     2.0070 c6         1 C5K      -0.072400
      6 CBH         -4.2050     3.0350     2.5100 c6         1 C5K      -0.072900
      7 CBM         -5.2890     4.0760     2.2560 c6         1 C5K      -0.071400
      8 CBL         -5.6700     4.1120     0.7790 c6         1 C5K      -0.072900
      9 CBK         -6.0800     2.7310     0.2790 c6         1 C5K      -0.072400
     10 CBJ         -4.9970     1.6790     0.5260 c6         1 C5K      -0.059700
     11 CBG         -5.4660     0.3170     0.0150 c3         1 C5K      -0.049400
     12 CAA         -4.4590    -0.8250     0.1350 c3         1 C5K       0.027300
     13 CAB         -5.0850    -2.1210    -0.4310 c          1 C5K       0.695000
     14 OAC         -5.9860    -2.6190     0.2770 o          1 C5K      -0.731500
     15 OAD         -4.6770    -2.5460    -1.5280 o          1 C5K      -0.731500
     16 O3          -3.2870    -0.4230    -0.5400 os         1 C5K      -0.433000
     17 C2          -1.1650    -0.6270     0.5990 c6         1 C5K       0.117300
     18 O2          -1.7410    -0.5930     1.8830 oh         1 C5K      -0.706000
     19 O4          -1.1980    -0.2140    -2.2960 oh         1 C5K      -0.700000
     20 O6           1.5670    -3.4370    -2.6080 oh         1 C5K      -0.711000
     21 O5           0.6480    -1.6870    -0.6340 os         1 C5K      -0.484000
     22 C1           0.1090    -1.4770     0.6410 c6         1 C5K       0.359300
     23 O1           1.0390    -0.7860     1.3910 os         1 C5K      -0.455000
     24 CAQ          2.0600    -1.5510     2.0090 c6         1 C5K       0.174300
     25 CAR          1.7160    -1.7590     3.4770 c6         1 C5K      -0.100400
     26 CAS          2.8270    -2.4960     4.2110 c6         1 C5K      -0.073400
     27 CAT          4.1570    -1.7790     4.0280 c6         1 C5K      -0.073400
     28 CAU          4.5100    -1.5970     2.5520 c6         1 C5K      -0.084700
     29 CBB          5.8790    -0.9450     2.3970 c3         1 C5K      -0.085100
     30 CAV          3.3940    -0.8250     1.8380 c6         1 C5K       0.178300
     31 OAW          3.6460    -0.7330     0.4460 os         1 C5K      -0.455000
     32 CAX          4.2000     0.4300    -0.0580 c6         1 C5K       0.377300
     33 OAY          3.2940     1.5050    -0.1130 os         1 C5K      -0.461000
     34 CAZ          2.1920     1.3220    -0.9730 c6         1 C5K       0.098300
     35 CBN          1.3590     2.5830    -0.8130 c3         1 C5K       0.320000
     36 FBQ          0.3470     2.6120    -1.6870 f          1 C5K      -0.109000
     37 FBO          0.8200     2.6460     0.4140 f          1 C5K      -0.109000
     38 FBP          2.0610     3.7080    -0.9750 f          1 C5K      -0.109000
     39 CBA          2.5920     1.0210    -2.4090 c6         1 C5K       0.152300
     40 OBB          3.1930     2.1480    -2.9940 oh         1 C5K      -0.714000
     41 CBC          3.5410    -0.1780    -2.3880 c6         1 C5K       0.127300
     42 OBD          3.9590    -0.3980    -3.7150 oh         1 C5K      -0.681000
     43 CBE          4.7190     0.1230    -1.4660 c6         1 C5K       0.114300
     44 OBF          5.5910    -0.9800    -1.4870 oh         1 C5K      -0.708000
     45 H1          -2.2030    -2.0320    -2.3500 h1         1 C5K       0.094700
     46 H2          -0.5600    -3.2940    -1.1250 h1         1 C5K       0.057700
     47 H3          -0.2300    -2.9790    -3.5480 h1         1 C5K       0.025700
     48 H4           0.8360    -1.6030    -3.2420 h1         1 C5K       0.025700
     49 H5          -2.4450    -2.2330     0.0090 h1         1 C5K       0.067700
     50 H8          -3.9620     2.9900     3.5750 hc         1 C5K       0.027700
     51 H9          -3.2860     3.3410     1.9970 hc         1 C5K       0.027700
     52 H10         -6.1750     3.8290     2.8520 hc         1 C5K       0.024200
     53 H11         -4.9580     5.0640     2.5880 hc         1 C5K       0.024200
     54 H12         -6.4790     4.8290     0.6130 hc         1 C5K       0.027700
     55 H13         -4.8150     4.4700     0.1950 hc         1 C5K       0.027700
     56 H14         -7.0000     2.4200     0.7900 hc         1 C5K       0.039200
     57 H15         -6.3210     2.7750    -0.7880 hc         1 C5K       0.039200
     58 H16         -4.1050     1.9750    -0.0400 hc         1 C5K       0.057700
     59 H19         -4.2450    -0.9950     1.1980 h1         1 C5K       0.033700
     60 H21         -0.9070     0.3820     0.2510 h1         1 C5K       0.068700
     61 H22         -1.1820    -0.0540     2.4500 ho         1 C5K       0.499000
     62 H23         -1.1300    -0.3140    -3.2490 ho         1 C5K       0.486000
     63 H24          2.0830    -3.4870    -3.4180 ho         1 C5K       0.494000
     64 H25         -0.1340    -2.4540     1.1040 h2         1 C5K       0.031700
     65 H26          2.1540    -2.5300     1.5180 h1         1 C5K       0.062700
     66 H27          1.5490    -0.7820     3.9430 hc         1 C5K       0.055200
     67 H28          0.7740    -2.3090     3.5490 hc         1 C5K       0.055200
     68 H29          2.5810    -2.5790     5.2720 hc         1 C5K       0.041200
     69 H30          2.9080    -3.5190     3.8300 hc         1 C5K       0.041200
     70 H31          4.1170    -0.8000     4.5190 hc         1 C5K       0.037200
     71 H32          4.9570    -2.3370     4.5210 hc         1 C5K       0.037200
     72 H33          4.5610    -2.5950     2.0960 hc         1 C5K       0.061700
     73 H34          6.6220    -1.4860     2.9860 hc         1 C5K       0.030700
     74 H35          6.2250    -0.9570     1.3640 hc         1 C5K       0.030700
     75 H36          5.8740     0.0900     2.7450 hc         1 C5K       0.030700
     76 H37          3.3060     0.1780     2.2820 h1         1 C5K       0.056700
     77 H38          5.0130     0.8050     0.5750 h2         1 C5K       0.062700
     78 H39          1.5700     0.4850    -0.6460 h1         1 C5K       0.127700
     79 H40          1.6810     0.7280    -2.9500 h1         1 C5K       0.074700
     80 H41          3.5630     1.8740    -3.8410 ho         1 C5K       0.517000
     81 H42          2.9920    -1.0460    -2.0020 h1         1 C5K       0.101700
     82 H43          4.6930    -1.0220    -3.6990 ho         1 C5K       0.461000
     83 H44          5.2230     1.0260    -1.8300 h1         1 C5K       0.058700
     84 H45          6.4830    -0.6740    -1.3000 ho         1 C5K       0.500000
     85 H17         -6.3690     0.0230     0.5570 hc         1 C5K       0.048200
     86 H6          -3.8080     0.9470     2.1720 hc         1 C5K       0.039200
     87 H18         -5.7600     0.4190    -1.0370 hc         1 C5K       0.048200
     88 H7          -5.4780     1.2960     2.5900 hc         1 C5K       0.039200
@<TRIPOS>BOND
     1     1     2 1   
     2     1     4 1   
     3     1    19 1   
     4     1    45 1   
     5     2     3 1   
     6     2    21 1   
     7     2    46 1   
     8     3    20 1   
     9     3    47 1   
    10     3    48 1   
    11     4    16 1   
    12     4    17 1   
    13     4    49 1   
    14     5     6 1   
    15     5    10 1   
    16     5    86 1   
    17     5    88 1   
    18     6     7 1   
    19     6    50 1   
    20     6    51 1   
    21     7     8 1   
    22     7    52 1   
    23     7    53 1   
    24     8     9 1   
    25     8    54 1   
    26     8    55 1   
    27     9    10 1   
    28     9    56 1   
    29     9    57 1   
    30    10    11 1   
    31    10    58 1   
    32    11    12 1   
    33    11    85 1   
    34    11    87 1   
    35    12    13 1   
    36    12    16 1   
    37    12    59 1   
    38    13    14 1   
    39    13    15 1   
    40    17    18 1   
    41    17    22 1   
    42    17    60 1   
    43    18    61 1   
    44    19    62 1   
    45    20    63 1   
    46    21    22 1   
    47    22    23 1   
    48    22    64 1   
    49    23    24 1   
    50    24    25 1   
    51    24    30 1   
    52    24    65 1   
    53    25    26 1   
    54    25    66 1   
    55    25    67 1   
    56    26    27 1   
    57    26    68 1   
    58    26    69 1   
    59    27    28 1   
    60    27    70 1   
    61    27    71 1   
    62    28    29 1   
    63    28    30 1   
    64    28    72 1   
    65    29    73 1   
    66    29    74 1   
    67    29    75 1   
    68    30    31 1   
    69    30    76 1   
    70    31    32 1   
    71    32    33 1   
    72    32    43 1   
    73    32    77 1   
    74    33    34 1   
    75    34    35 1   
    76    34    39 1   
    77    34    78 1   
    78    35    36 1   
    79    35    37 1   
    80    35    38 1   
    81    39    40 1   
    82    39    41 1   
    83    39    79 1   
    84    40    80 1   
    85    41    42 1   
    86    41    43 1   
    87    41    81 1   
    88    42    82 1   
    89    43    44 1   
    90    43    83 1   
    91    44    84 1   
@<TRIPOS>SUBSTRUCTURE
     1 C5K         1 TEMP              0 ****  ****    0 ROOT
