@<TRIPOS>MOLECULE
C5K
   88    91     1     0     0
SMALL
No Charge or Current Charge


@<TRIPOS>ATOM
      1 C4          -1.9270    -2.1990    -1.5240 c6         1 C5K       0.125300
      2 C5          -0.5730    -2.9710    -1.4160 c6         1 C5K       0.142300
      3 C6           0.0180    -3.3580    -2.8120 c3         1 C5K       0.162600
      4 C3          -2.4360    -1.8140    -0.0980 c6         1 C5K       0.213300
      5 CBI         -4.0300     2.2500     1.3540 c6         1 C5K      -0.072400
      6 CBH         -3.4040     3.6310     1.0340 c6         1 C5K      -0.072900
      7 CBM         -4.4820     4.6520     0.5990 c6         1 C5K      -0.071400
      8 CBL         -5.2970     4.1170    -0.6020 c6         1 C5K      -0.072900
      9 CBK         -5.9300     2.7400    -0.2800 c6         1 C5K      -0.072400
     10 CBJ         -4.8580     1.7000     0.1540 c6         1 C5K      -0.059700
     11 CBG         -5.5240     0.3190     0.4630 c3         1 C5K      -0.049400
     12 CAA         -4.5640    -0.8430     0.8360 c3         1 C5K       0.027300
     13 CAB         -5.3700    -2.1570     1.1490 c          1 C5K       0.695000
     14 OAC         -6.0120    -2.2000     2.1900 o          1 C5K      -0.731500
     15 OAD         -5.3020    -3.1090     0.3800 o          1 C5K      -0.731500
     16 O3          -3.6200    -0.9780    -0.2670 os         1 C5K      -0.433000
     17 C2          -1.2980    -1.0970     0.7180 c6         1 C5K       0.117300
     18 O2          -1.6540    -0.8090     2.0930 oh         1 C5K      -0.706000
     19 O4          -1.8240    -1.0100    -2.3420 oh         1 C5K      -0.700000
     20 O6           1.2250    -4.1400    -2.7210 oh         1 C5K      -0.711000
     21 O5           0.4020    -2.1810    -0.6920 os         1 C5K      -0.484000
     22 C1           0.0200    -1.9340     0.6700 c6         1 C5K       0.359300
     23 O1           1.0730    -1.1980     1.3170 os         1 C5K      -0.455000
     24 CAQ          2.2510    -1.9600     1.6690 c6         1 C5K       0.174300
     25 CAR          1.9960    -2.7090     3.0050 c6         1 C5K      -0.100400
     26 CAS          3.2580    -3.4530     3.4930 c6         1 C5K      -0.073400
     27 CAT          4.4480    -2.4800     3.6360 c6         1 C5K      -0.073400
     28 CAU          4.7570    -1.7590     2.2960 c6         1 C5K      -0.084700
     29 CBB          6.0040    -0.8430     2.4590 c3         1 C5K      -0.085100
     30 CAV          3.4900    -1.0110     1.7580 c6         1 C5K       0.178300
     31 OAW          3.7510    -0.4540     0.4450 os         1 C5K      -0.455000
     32 CAX          4.1070     0.9450     0.3960 c6         1 C5K       0.377300
     33 OAY          2.9420     1.7590     0.6630 os         1 C5K      -0.461000
     34 CAZ          1.8710     1.6290    -0.3170 c6         1 C5K       0.098300
     35 CBN          0.6110     2.4080     0.1880 c3         1 C5K       0.320000
     36 FBQ         -0.4070     2.3230    -0.6990 f          1 C5K      -0.109000
     37 FBO          0.1580     1.9040     1.3590 f          1 C5K      -0.109000
     38 FBP          0.8540     3.7240     0.3980 f          1 C5K      -0.109000
     39 CBA          2.3620     2.0560    -1.7410 c6         1 C5K       0.152300
     40 OBB          2.7270     3.4470    -1.8230 oh         1 C5K      -0.714000
     41 CBC          3.6060     1.1970    -2.1130 c6         1 C5K       0.127300
     42 OBD          4.1490     1.6260    -3.3790 oh         1 C5K      -0.681000
     43 CBE          4.7090     1.2880    -1.0100 c6         1 C5K       0.114300
     44 OBF          5.8120     0.4130    -1.3540 oh         1 C5K      -0.708000
     45 H1          -2.6690    -2.8850    -1.9610 h1         1 C5K       0.094700
     46 H2          -0.7450    -3.9070    -0.8630 h1         1 C5K       0.057700
     47 H3          -0.7480    -3.9200    -3.3630 h1         1 C5K       0.025700
     48 H4           0.2130    -2.4350    -3.3760 h1         1 C5K       0.025700
     49 H5          -2.7150    -2.7390     0.4260 h1         1 C5K       0.067700
     50 H8          -2.8650     4.0090     1.9130 hc         1 C5K       0.027700
     51 H9          -2.6580     3.5220     0.2350 hc         1 C5K       0.027700
     52 H10         -5.1550     4.8610     1.4420 hc         1 C5K       0.024200
     53 H11         -4.0060     5.6050     0.3330 hc         1 C5K       0.024200
     54 H12         -6.0850     4.8360    -0.8660 hc         1 C5K       0.027700
     55 H13         -4.6460     4.0290    -1.4820 hc         1 C5K       0.027700
     56 H14         -6.6780     2.8590     0.5160 hc         1 C5K       0.039200
     57 H15         -6.4710     2.3740    -1.1630 hc         1 C5K       0.039200
     58 H16         -4.1760     1.5420    -0.6940 hc         1 C5K       0.057700
     59 H19         -4.0510    -0.5650     1.7610 h1         1 C5K       0.033700
     60 H21         -1.0870    -0.1520     0.1990 h1         1 C5K       0.068700
     61 H22         -0.8290    -0.4790     2.5190 ho         1 C5K       0.499000
     62 H23         -2.5970    -0.4570    -2.0810 ho         1 C5K       0.486000
     63 H24          1.5620    -4.2530    -3.6400 ho         1 C5K       0.494000
     64 H25         -0.1430    -2.8910     1.1890 h2         1 C5K       0.031700
     65 H26          2.4530    -2.6970     0.8780 h1         1 C5K       0.062700
     66 H27          1.6740    -1.9910     3.7730 hc         1 C5K       0.055200
     67 H28          1.1770    -3.4300     2.8880 hc         1 C5K       0.055200
     68 H29          3.0550    -3.9380     4.4570 hc         1 C5K       0.041200
     69 H30          3.5150    -4.2550     2.7870 hc         1 C5K       0.041200
     70 H31          4.2290    -1.7390     4.4190 hc         1 C5K       0.037200
     71 H32          5.3320    -3.0380     3.9760 hc         1 C5K       0.037200
     72 H33          5.0390    -2.5240     1.5590 hc         1 C5K       0.061700
     73 H34          6.8410    -1.3910     2.9080 hc         1 C5K       0.030700
     74 H35          6.3570    -0.4660     1.4920 hc         1 C5K       0.030700
     75 H36          5.7860     0.0170     3.1030 hc         1 C5K       0.030700
     76 H37          3.2360    -0.1980     2.4540 h1         1 C5K       0.056700
     77 H38          4.8690     1.1600     1.1580 h2         1 C5K       0.062700
     78 H39          1.5720     0.5720    -0.3710 h1         1 C5K       0.127700
     79 H40          1.5640     1.8320    -2.4660 h1         1 C5K       0.074700
     80 H41          3.3360     3.4870    -2.6010 ho         1 C5K       0.517000
     81 H42          3.2780     0.1470    -2.1790 h1         1 C5K       0.101700
     82 H43          5.0560     1.2420    -3.4140 ho         1 C5K       0.461000
     83 H44          5.0680     2.3260    -0.9640 h1         1 C5K       0.058700
     84 H45          5.5710    -0.4790    -1.0060 ho         1 C5K       0.500000
     85 H17         -6.2410     0.4440     1.2840 hc         1 C5K       0.048200
     86 H6          -3.2240     1.5520     1.6130 hc         1 C5K       0.039200
     87 H18         -6.1160    -0.0010    -0.4030 hc         1 C5K       0.048200
     88 H7          -4.6700     2.3330     2.2430 hc         1 C5K       0.039200
@<TRIPOS>BOND
     1     1     2 1   
     2     1     4 1   
     3     1    19 1   
     4     1    45 1   
     5     2     3 1   
     6     2    21 1   
     7     2    46 1   
     8     3    20 1   
     9     3    47 1   
    10     3    48 1   
    11     4    16 1   
    12     4    17 1   
    13     4    49 1   
    14     5     6 1   
    15     5    10 1   
    16     5    86 1   
    17     5    88 1   
    18     6     7 1   
    19     6    50 1   
    20     6    51 1   
    21     7     8 1   
    22     7    52 1   
    23     7    53 1   
    24     8     9 1   
    25     8    54 1   
    26     8    55 1   
    27     9    10 1   
    28     9    56 1   
    29     9    57 1   
    30    10    11 1   
    31    10    58 1   
    32    11    12 1   
    33    11    85 1   
    34    11    87 1   
    35    12    13 1   
    36    12    16 1   
    37    12    59 1   
    38    13    14 1   
    39    13    15 1   
    40    17    18 1   
    41    17    22 1   
    42    17    60 1   
    43    18    61 1   
    44    19    62 1   
    45    20    63 1   
    46    21    22 1   
    47    22    23 1   
    48    22    64 1   
    49    23    24 1   
    50    24    25 1   
    51    24    30 1   
    52    24    65 1   
    53    25    26 1   
    54    25    66 1   
    55    25    67 1   
    56    26    27 1   
    57    26    68 1   
    58    26    69 1   
    59    27    28 1   
    60    27    70 1   
    61    27    71 1   
    62    28    29 1   
    63    28    30 1   
    64    28    72 1   
    65    29    73 1   
    66    29    74 1   
    67    29    75 1   
    68    30    31 1   
    69    30    76 1   
    70    31    32 1   
    71    32    33 1   
    72    32    43 1   
    73    32    77 1   
    74    33    34 1   
    75    34    35 1   
    76    34    39 1   
    77    34    78 1   
    78    35    36 1   
    79    35    37 1   
    80    35    38 1   
    81    39    40 1   
    82    39    41 1   
    83    39    79 1   
    84    40    80 1   
    85    41    42 1   
    86    41    43 1   
    87    41    81 1   
    88    42    82 1   
    89    43    44 1   
    90    43    83 1   
    91    44    84 1   
@<TRIPOS>SUBSTRUCTURE
     1 C5K         1 TEMP              0 ****  ****    0 ROOT
