@<TRIPOS>MOLECULE
C5M
   68    70     1     0     0
SMALL
No Charge or Current Charge


@<TRIPOS>ATOM
      1 C1          -5.9840    -3.3130    -2.1490 c3         1 C5M       0.146900
      2 O2          -5.8400    -2.6650    -0.8720 os         1 C5M      -0.338100
      3 C3          -5.2610    -1.4160    -0.7190 ca         1 C5M       0.203100
      4 C4          -4.7730    -0.7070    -1.8230 ca         1 C5M      -0.238000
      5 C5          -4.1850     0.5560    -1.6820 ca         1 C5M       0.066700
      6 C6          -3.6780     1.2010    -2.9780 c3         1 C5M      -0.061800
      7 C7          -4.0790     1.1550    -0.3910 ca         1 C5M      -0.335500
      8 C8          -4.5590     0.4250     0.7510 ca         1 C5M       0.048700
      9 C9          -4.4420     0.9980     2.1760 c3         1 C5M      -0.069800
     10 C10         -5.1580    -0.8590     0.5730 ca         1 C5M      -0.138300
     11 C11         -5.7030    -1.6600     1.7720 c3         1 C5M      -0.038800
     12 S12         -3.3090     2.8240    -0.2580 sy         1 C5M       1.140600
     13 O13         -3.3180     3.3470     1.1070 o          1 C5M      -0.536000
     14 O14         -3.7330     3.6530    -1.3880 o          1 C5M      -0.536000
     15 N15         -1.7070     2.4730    -0.5580 n7         1 C5M      -0.853300
     16 C16         -1.1410     1.2450     0.0340 c3         1 C5M       0.163800
     17 C17          0.4060     1.2430    -0.1030 c3         1 C5M       0.117300
     18 O18          0.9770     2.3670     0.6160 oh         1 C5M      -0.659000
     19 C19          1.0810    -0.1060     0.3310 c3         1 C5M       0.163500
     20 C20          0.8220    -0.5100     1.8120 c3         1 C5M      -0.029100
     21 C21          1.3080    -1.9210     2.1350 ca         1 C5M      -0.070300
     22 C22          2.5530    -2.1240     2.7630 ca         1 C5M      -0.100000
     23 C23          2.9960    -3.4250     3.0580 ca         1 C5M      -0.111500
     24 C24          2.1960    -4.5320     2.7290 ca         1 C5M      -0.109000
     25 C25          0.9530    -4.3370     2.1030 ca         1 C5M      -0.111500
     26 C26          0.5110    -3.0360     1.8070 ca         1 C5M      -0.100000
     27 N27          2.5460    -0.0250     0.1080 n7         1 C5M      -0.885400
     28 C28          3.0160    -0.2550    -1.2690 c3         1 C5M       0.221100
     29 C29          4.5350    -0.1750    -1.3240 ca         1 C5M      -0.081300
     30 C30          5.3170    -1.2110    -0.7760 ca         1 C5M      -0.086000
     31 C31          6.7210    -1.1440    -0.8240 ca         1 C5M      -0.109000
     32 C32          7.3510    -0.0380    -1.4210 ca         1 C5M      -0.102000
     33 C33          6.5760     0.9980    -1.9660 ca         1 C5M       0.118000
     34 Cl34         7.3630     2.3830    -2.7110 cl         1 C5M      -0.209000
     35 C35          5.1730     0.9330    -1.9190 ca         1 C5M      -0.101000
     36 H1C1        -5.0050    -3.4780    -2.6170 h1         1 C5M       0.046033
     37 H1C2        -6.4690    -4.2890    -2.0270 h1         1 C5M       0.046033
     38 H1C3        -6.6030    -2.7090    -2.8260 h1         1 C5M       0.046033
     39 H4          -4.8450    -1.1340    -2.8180 ha         1 C5M       0.119000
     40 H6C1        -4.3330     2.0200    -3.2960 hc         1 C5M       0.059033
     41 H6C2        -2.6570     1.5850    -2.8830 hc         1 C5M       0.059033
     42 H6C3        -3.6510     0.4840    -3.8070 hc         1 C5M       0.059033
     43 H9C1        -5.0400     1.9100     2.2810 hc         1 C5M       0.057033
     44 H9C2        -4.7810     0.3330     2.9730 hc         1 C5M       0.057033
     45 H9C3        -3.4000     1.2230     2.4260 hc         1 C5M       0.057033
     46 H111        -6.4570    -1.0830     2.3200 hc         1 C5M       0.046033
     47 H112        -6.1870    -2.6020     1.4950 hc         1 C5M       0.046033
     48 H113        -4.8970    -1.9190     2.4690 hc         1 C5M       0.046033
     49 H15         -1.2520     3.2730    -0.1220 hn         1 C5M       0.487000
     50 H161        -1.4060     1.1770     1.0980 h1         1 C5M       0.057200
     51 H162        -1.5410     0.3530    -0.4670 h1         1 C5M       0.057200
     52 H17          0.6110     1.3640    -1.1760 h1         1 C5M       0.094700
     53 H18          0.8610     2.1950     1.5750 ho         1 C5M       0.441000
     54 H19          0.6530    -0.9050    -0.2910 h1         1 C5M       0.070700
     55 H201         1.2960     0.2170     2.4830 hc         1 C5M       0.046200
     56 H202        -0.2510    -0.4610     2.0260 hc         1 C5M       0.046200
     57 H22          3.1810    -1.2730     3.0150 ha         1 C5M       0.109500
     58 H23          3.9600    -3.5750     3.5400 ha         1 C5M       0.112000
     59 H24          2.5390    -5.5390     2.9570 ha         1 C5M       0.113000
     60 H25          0.3330    -5.1930     1.8470 ha         1 C5M       0.112000
     61 H26         -0.4530    -2.8940     1.3220 ha         1 C5M       0.109500
     62 H27          2.8450     0.9150     0.3930 hn         1 C5M       0.432000
     63 H281         2.7020    -1.2480    -1.6200 h1         1 C5M       0.040700
     64 H282         2.5870     0.4860    -1.9580 h1         1 C5M       0.040700
     65 H30          4.8330    -2.0660    -0.3080 ha         1 C5M       0.136000
     66 H31          7.3190    -1.9470    -0.3990 ha         1 C5M       0.116000
     67 H32          8.4360     0.0170    -1.4600 ha         1 C5M       0.128000
     68 H35          4.5840     1.7420    -2.3430 ha         1 C5M       0.127000
@<TRIPOS>BOND
     1     1     2 1   
     2     1    36 1   
     3     1    37 1   
     4     1    38 1   
     5     2     3 1   
     6     3     4 ar  
     7     3    10 ar  
     8     4     5 ar  
     9     4    39 1   
    10     5     6 1   
    11     5     7 ar  
    12     6    40 1   
    13     6    41 1   
    14     6    42 1   
    15     7     8 ar  
    16     7    12 1   
    17     8     9 1   
    18     8    10 ar  
    19     9    43 1   
    20     9    44 1   
    21     9    45 1   
    22    10    11 1   
    23    11    46 1   
    24    11    47 1   
    25    11    48 1   
    26    12    13 2   
    27    12    14 2   
    28    12    15 1   
    29    15    16 1   
    30    15    49 1   
    31    16    17 1   
    32    16    50 1   
    33    16    51 1   
    34    17    18 1   
    35    17    19 1   
    36    17    52 1   
    37    18    53 1   
    38    19    20 1   
    39    19    27 1   
    40    19    54 1   
    41    20    21 1   
    42    20    55 1   
    43    20    56 1   
    44    21    22 ar  
    45    21    26 ar  
    46    22    23 ar  
    47    22    57 1   
    48    23    24 ar  
    49    23    58 1   
    50    24    25 ar  
    51    24    59 1   
    52    25    26 ar  
    53    25    60 1   
    54    26    61 1   
    55    27    28 1   
    56    27    62 1   
    57    28    29 1   
    58    28    63 1   
    59    28    64 1   
    60    29    30 ar  
    61    29    35 ar  
    62    30    31 ar  
    63    30    65 1   
    64    31    32 ar  
    65    31    66 1   
    66    32    33 ar  
    67    32    67 1   
    68    33    34 1   
    69    33    35 ar  
    70    35    68 1   
@<TRIPOS>SUBSTRUCTURE
     1 C5M         1 TEMP              0 ****  ****    0 ROOT
