@<TRIPOS>MOLECULE
C5M
   68    70     1     0     0
SMALL
abcg2


@<TRIPOS>ATOM
      1 C1          -7.0120    -2.8510     1.0630 c3         1 C5M       0.146900
      2 O2          -6.6250    -1.5750     1.5390 os         1 C5M      -0.338100
      3 C3          -5.8200    -0.8100     0.7900 ca         1 C5M       0.203100
      4 C4          -5.3230    -1.2160    -0.4400 ca         1 C5M      -0.238000
      5 C5          -4.5040    -0.4000    -1.2100 ca         1 C5M       0.066700
      6 C6          -4.0560    -0.9850    -2.5240 c3         1 C5M      -0.061800
      7 C7          -4.1740     0.8640    -0.6940 ca         1 C5M      -0.335500
      8 C8          -4.6170     1.2670     0.5860 ca         1 C5M       0.048700
      9 C9          -4.2230     2.5580     1.2600 c3         1 C5M      -0.069800
     10 C10         -5.4750     0.4420     1.3150 ca         1 C5M      -0.138300
     11 C11         -6.0190     0.8750     2.6490 c3         1 C5M      -0.038800
     12 S12         -3.1960     2.0120    -1.6510 sy         1 C5M       1.140600
     13 O13         -3.7250     3.3550    -1.4740 o          1 C5M      -0.536000
     14 O14         -3.0550     1.5190    -3.0100 o          1 C5M      -0.536000
     15 N15         -1.6730     2.0120    -1.0090 n7         1 C5M      -0.853300
     16 C16         -0.9500     0.7450    -0.9810 c3         1 C5M       0.163800
     17 C17          0.3500     0.9330    -0.2080 c3         1 C5M       0.117300
     18 O18          0.1020     1.3420     1.1210 oh         1 C5M      -0.659000
     19 C19          1.2670    -0.3020    -0.2860 c3         1 C5M       0.163500
     20 C20          0.6680    -1.5430     0.3970 c3         1 C5M      -0.029100
     21 C21          1.4680    -2.7770     0.0900 ca         1 C5M      -0.070300
     22 C22          2.4770    -3.2130     0.9450 ca         1 C5M      -0.100000
     23 C23          3.2400    -4.3300     0.6340 ca         1 C5M      -0.111500
     24 C24          3.0080    -5.0290    -0.5440 ca         1 C5M      -0.109000
     25 C25          2.0040    -4.6040    -1.4040 ca         1 C5M      -0.111500
     26 C26          1.2410    -3.4880    -1.0860 ca         1 C5M      -0.100000
     27 N27          2.5840    -0.0710     0.2580 n7         1 C5M      -0.885400
     28 C28          3.4680     0.7750    -0.5080 c3         1 C5M       0.221100
     29 C29          4.9000     0.5840    -0.0730 ca         1 C5M      -0.081300
     30 C30          5.3950    -0.6930     0.1830 ca         1 C5M      -0.086000
     31 C31          6.7180    -0.8710     0.5540 ca         1 C5M      -0.109000
     32 C32          7.5720     0.2170     0.6840 ca         1 C5M      -0.102000
     33 C33          7.0690     1.4820     0.4340 ca         1 C5M       0.118000
     34 CL34         8.1100     2.8620     0.6030 cl         1 C5M      -0.209000
     35 C35          5.7470     1.6770     0.0600 ca         1 C5M      -0.101000
     36 H1C1        -6.1540    -3.5120     0.9250 h1         1 C5M       0.046033
     37 H1C2        -7.6630    -3.2740     1.8230 h1         1 C5M       0.046033
     38 H1C3        -7.5650    -2.7840     0.1220 h1         1 C5M       0.046033
     39 H4          -5.5710    -2.1930    -0.8320 ha         1 C5M       0.119000
     40 H6C1        -4.4940    -0.4680    -3.3740 hc         1 C5M       0.059033
     41 H6C2        -2.9760    -0.9640    -2.6520 hc         1 C5M       0.059033
     42 H6C3        -4.3690    -2.0260    -2.5750 hc         1 C5M       0.059033
     43 H9C1        -5.0010     3.3150     1.1450 hc         1 C5M       0.057033
     44 H9C2        -4.0900     2.3910     2.3260 hc         1 C5M       0.057033
     45 H9C3        -3.3010     3.0040     0.9070 hc         1 C5M       0.057033
     46 H111        -6.3830     1.9020     2.6140 hc         1 C5M       0.046033
     47 H112        -6.8460     0.2500     2.9730 hc         1 C5M       0.046033
     48 H113        -5.2550     0.8330     3.4280 hc         1 C5M       0.046033
     49 H15         -1.6270     2.5100    -0.1250 hn         1 C5M       0.487000
     50 H161        -1.5510    -0.0520    -0.5230 h1         1 C5M       0.057200
     51 H162        -0.7190     0.4430    -2.0020 h1         1 C5M       0.057200
     52 H17          0.8860     1.7680    -0.6710 h1         1 C5M       0.094700
     53 H18         -0.3700     0.6410     1.5850 ho         1 C5M       0.441000
     54 H19          1.3900    -0.5330    -1.3500 h1         1 C5M       0.070700
     55 H201         0.6350    -1.3900     1.4800 hc         1 C5M       0.046200
     56 H202        -0.3630    -1.6920     0.0710 hc         1 C5M       0.046200
     57 H22          2.6650    -2.6720     1.8640 ha         1 C5M       0.109500
     58 H23          4.0180    -4.6560     1.3130 ha         1 C5M       0.112000
     59 H24          3.6020    -5.9000    -0.7870 ha         1 C5M       0.113000
     60 H25          1.8110    -5.1440    -2.3230 ha         1 C5M       0.112000
     61 H26          0.4590    -3.1640    -1.7640 ha         1 C5M       0.109500
     62 H27          2.5260     0.2480     1.2180 hn         1 C5M       0.432000
     63 H281         3.3810     0.4820    -1.5600 h1         1 C5M       0.040700
     64 H282         3.2220     1.8460    -0.4750 h1         1 C5M       0.040700
     65 H30          4.7290    -1.5430     0.1000 ha         1 C5M       0.136000
     66 H31          7.0970    -1.8660     0.7490 ha         1 C5M       0.116000
     67 H32          8.6040     0.0780     0.9780 ha         1 C5M       0.128000
     68 H35          5.3780     2.6790    -0.1230 ha         1 C5M       0.127000
@<TRIPOS>BOND
     1     1     2 1   
     2     1    36 1   
     3     1    37 1   
     4     1    38 1   
     5     2     3 1   
     6     3     4 ar  
     7     3    10 ar  
     8     4     5 ar  
     9     4    39 1   
    10     5     6 1   
    11     5     7 ar  
    12     6    40 1   
    13     6    41 1   
    14     6    42 1   
    15     7     8 ar  
    16     7    12 1   
    17     8     9 1   
    18     8    10 ar  
    19     9    43 1   
    20     9    44 1   
    21     9    45 1   
    22    10    11 1   
    23    11    46 1   
    24    11    47 1   
    25    11    48 1   
    26    12    13 2   
    27    12    14 2   
    28    12    15 1   
    29    15    16 1   
    30    15    49 1   
    31    16    17 1   
    32    16    50 1   
    33    16    51 1   
    34    17    18 1   
    35    17    19 1   
    36    17    52 1   
    37    18    53 1   
    38    19    20 1   
    39    19    27 1   
    40    19    54 1   
    41    20    21 1   
    42    20    55 1   
    43    20    56 1   
    44    21    22 ar  
    45    21    26 ar  
    46    22    23 ar  
    47    22    57 1   
    48    23    24 ar  
    49    23    58 1   
    50    24    25 ar  
    51    24    59 1   
    52    25    26 ar  
    53    25    60 1   
    54    26    61 1   
    55    27    28 1   
    56    27    62 1   
    57    28    29 1   
    58    28    63 1   
    59    28    64 1   
    60    29    30 ar  
    61    29    35 ar  
    62    30    31 ar  
    63    30    65 1   
    64    31    32 ar  
    65    31    66 1   
    66    32    33 ar  
    67    32    67 1   
    68    33    34 1   
    69    33    35 ar  
    70    35    68 1   
@<TRIPOS>SUBSTRUCTURE
     1 C5M         1 TEMP              0 ****  ****    0 ROOT
