@<TRIPOS>MOLECULE
C5N
   83    88     1     0     0
SMALL
bcc


@<TRIPOS>ATOM
      1 O1          -4.1670    -2.1760    -0.8160 os         1 C5N      -0.342900
      2 O2           5.9340     1.3140     1.1900 o          1 C5N      -0.592100
      3 C1          -4.8700    -3.3330    -1.2210 c3         1 C5N       0.132700
      4 C2          -4.8590    -1.0880    -0.4150 ca         1 C5N       0.116100
      5 C3          -6.2370    -1.0360    -0.3460 ca         1 C5N      -0.229000
      6 C4          -6.9060     0.1250     0.0770 ca         1 C5N       0.166600
      7 N1          -8.3000     0.1230     0.1630 nh         1 C5N      -0.646000
      8 C5          -8.9410     1.2930     0.7280 c6         1 C5N       0.196300
      9 C6         -10.3890     0.9930     1.0700 c6         1 C5N       0.156800
     10 N2         -11.1160     0.5200    -0.0880 n3         1 C5N      -0.712600
     11 C7         -12.5090     0.2910     0.2150 c3         1 C5N       0.151100
     12 C8         -10.4800    -0.6710    -0.6110 c6         1 C5N       0.156800
     13 C9          -9.0380    -0.3910    -0.9830 c6         1 C5N       0.196300
     14 C10         -6.1230     1.2190     0.4320 ca         1 C5N      -0.197000
     15 C11         -4.7320     1.1620     0.3780 ca         1 C5N      -0.098000
     16 C12         -4.0680     0.0240    -0.0490 ca         1 C5N       0.118600
     17 N3          -2.6870    -0.1330    -0.1630 nu         1 C5N      -0.721300
     18 C13         -1.6630     0.6980     0.1530 ca         1 C5N       0.918900
     19 N4          -1.8940     1.8930     0.6840 nb         1 C5N      -0.761000
     20 C14         -0.8290     2.6450     0.9460 ca         1 C5N       0.481200
     21 C15          0.4700     2.2480     0.7000 ca         1 C5N      -0.356900
     22 C16          1.6790     3.1160     0.9080 c6         1 C5N      -0.011100
     23 C17          2.9140     2.3250     1.3470 c6         1 C5N       0.001900
     24 C18          3.0450     1.0980     0.5060 cc         1 C5N      -0.165600
     25 C19          1.9400     0.4810    -0.0470 cd         1 C5N      -0.198800
     26 N5           2.3780    -0.6070    -0.7230 na         1 C5N       0.170400
     27 C20          1.6060    -1.5810    -1.4670 c3         1 C5N       0.045600
     28 N6           3.6830    -0.7270    -0.6420 nd         1 C5N      -0.518800
     29 C21          4.1140     0.2870     0.1040 cc         1 C5N       0.255800
     30 C22          5.5480     0.4560     0.4110 c          1 C5N       0.607600
     31 N7           6.3700    -0.4020    -0.2260 ns         1 C5N      -0.489100
     32 C23          7.7800    -0.3910    -0.0630 ca         1 C5N       0.053600
     33 C24          8.5710     0.2240    -1.0380 ca         1 C5N      -0.064800
     34 C25          7.9710     0.9230    -2.2270 c3         1 C5N      -0.029600
     35 C26          7.6970     2.4000    -1.9480 c3         1 C5N      -0.086600
     36 C27          9.9540     0.2110    -0.8740 ca         1 C5N      -0.128000
     37 C28         10.5330    -0.3920     0.2310 ca         1 C5N      -0.122000
     38 C29          9.7310    -1.0010     1.1850 ca         1 C5N      -0.128000
     39 C30          8.3460    -1.0160     1.0520 ca         1 C5N      -0.064800
     40 C31          7.5090    -1.7460     2.0670 c3         1 C5N      -0.029600
     41 C32          7.0610    -3.1210     1.5720 c3         1 C5N      -0.086600
     42 C33          0.5880     0.9570     0.1610 ca         1 C5N       0.573800
     43 N8          -0.4500     0.1910    -0.1090 nb         1 C5N      -0.786000
     44 H1          -4.1210    -4.0590    -1.5240 h1         1 C5N       0.041033
     45 H2          -5.4620    -3.7550    -0.4050 h1         1 C5N       0.041033
     46 H3          -5.5300    -3.1290    -2.0680 h1         1 C5N       0.041033
     47 H4          -6.8090    -1.9180    -0.5980 ha         1 C5N       0.138000
     48 H5          -8.4310     1.5780     1.6490 h1         1 C5N       0.044200
     49 H6          -8.8950     2.1550     0.0450 h1         1 C5N       0.044200
     50 H7         -10.4180     0.2590     1.8950 h1         1 C5N       0.039450
     51 H8         -10.8560     1.9090     1.4380 h1         1 C5N       0.039450
     52 H10        -12.9750     1.2140     0.5640 h1         1 C5N       0.031367
     53 H11        -13.0400    -0.0310    -0.6820 h1         1 C5N       0.031367
     54 H12        -12.6630    -0.4770     0.9890 h1         1 C5N       0.031367
     55 H13        -10.5120    -1.5020     0.1160 h1         1 C5N       0.039450
     56 H14        -11.0140    -1.0020    -1.5040 h1         1 C5N       0.039450
     57 H15         -9.0080     0.3250    -1.8180 h1         1 C5N       0.044200
     58 H16         -8.5930    -1.3190    -1.3350 h1         1 C5N       0.044200
     59 H17         -6.5700     2.1490     0.7540 ha         1 C5N       0.135000
     60 H18         -4.1650     2.0320     0.6660 ha         1 C5N       0.168000
     61 H19         -2.3800    -1.0150    -0.5420 hn         1 C5N       0.467800
     62 H20         -1.0300     3.6220     1.3740 h4         1 C5N       0.023100
     63 H21          1.9100     3.6230    -0.0350 hc         1 C5N       0.052700
     64 H22          3.8010     2.9510     1.2700 hc         1 C5N       0.069700
     65 H23          0.9390    -1.0810    -2.1640 h1         1 C5N       0.066033
     66 H24          2.3040    -2.2040    -2.0150 h1         1 C5N       0.066033
     67 H25          1.0140    -2.1960    -0.7940 h1         1 C5N       0.066033
     68 H26          5.9590    -1.0600    -0.8730 hn         1 C5N       0.339500
     69 H27          8.6620     0.8400    -3.0680 hc         1 C5N       0.047700
     70 H28          7.0470     0.4320    -2.5360 hc         1 C5N       0.047700
     71 H29          7.2800     2.8900    -2.8280 hc         1 C5N       0.035533
     72 H30          6.9930     2.5300    -1.1260 hc         1 C5N       0.035533
     73 H31          8.6170     2.9220    -1.6800 hc         1 C5N       0.035533
     74 H32         10.5790     0.6820    -1.6240 ha         1 C5N       0.130500
     75 H33         11.6090    -0.3920     0.3480 ha         1 C5N       0.131000
     76 H34         10.1840    -1.4800     2.0450 ha         1 C5N       0.130500
     77 H35          8.0980    -1.8710     2.9770 hc         1 C5N       0.047700
     78 H36          6.6360    -1.1570     2.3510 hc         1 C5N       0.047700
     79 H37          6.4130    -3.0430     0.7000 hc         1 C5N       0.035533
     80 H38          7.9180    -3.7380     1.2980 hc         1 C5N       0.035533
     81 H39          6.5060    -3.6470     2.3500 hc         1 C5N       0.035533
     82 H40          1.4580     3.9000     1.6340 hc         1 C5N       0.052700
     83 H41          2.8270     2.0360     2.3990 hc         1 C5N       0.069700
@<TRIPOS>BOND
     1     1     3 1   
     2     1     4 1   
     3     2    30 2   
     4     3    44 1   
     5     3    45 1   
     6     3    46 1   
     7     4     5 ar  
     8     4    16 ar  
     9     5     6 ar  
    10     5    47 1   
    11     6     7 1   
    12     6    14 ar  
    13     7     8 1   
    14     7    13 1   
    15     8     9 1   
    16     8    48 1   
    17     8    49 1   
    18     9    10 1   
    19     9    50 1   
    20     9    51 1   
    21    10    11 1   
    22    10    12 1   
    23    11    52 1   
    24    11    53 1   
    25    11    54 1   
    26    12    13 1   
    27    12    55 1   
    28    12    56 1   
    29    13    57 1   
    30    13    58 1   
    31    14    15 ar  
    32    14    59 1   
    33    15    16 ar  
    34    15    60 1   
    35    16    17 1   
    36    17    18 1   
    37    17    61 1   
    38    18    19 ar  
    39    18    43 ar  
    40    19    20 ar  
    41    20    21 ar  
    42    20    62 1   
    43    21    22 1   
    44    21    42 ar  
    45    22    23 1   
    46    22    63 1   
    47    22    82 1   
    48    23    24 1   
    49    23    64 1   
    50    23    83 1   
    51    24    25 2   
    52    24    29 1   
    53    25    26 1   
    54    25    42 1   
    55    26    27 1   
    56    26    28 1   
    57    27    65 1   
    58    27    66 1   
    59    27    67 1   
    60    28    29 2   
    61    29    30 1   
    62    30    31 1   
    63    31    32 1   
    64    31    68 1   
    65    32    33 ar  
    66    32    39 ar  
    67    33    34 1   
    68    33    36 ar  
    69    34    35 1   
    70    34    69 1   
    71    34    70 1   
    72    35    71 1   
    73    35    72 1   
    74    35    73 1   
    75    36    37 ar  
    76    36    74 1   
    77    37    38 ar  
    78    37    75 1   
    79    38    39 ar  
    80    38    76 1   
    81    39    40 1   
    82    40    41 1   
    83    40    77 1   
    84    40    78 1   
    85    41    79 1   
    86    41    80 1   
    87    41    81 1   
    88    42    43 ar  
@<TRIPOS>SUBSTRUCTURE
     1 C5N         1 TEMP              0 ****  ****    0 ROOT
