@<TRIPOS>MOLECULE
C5N
   83    88     1     0     0
SMALL
No Charge or Current Charge


@<TRIPOS>ATOM
      1 O1          -4.2460    -2.2590    -0.6310 os         1 C5N      -0.366100
      2 O2           5.9930     1.4200     1.2320 o          1 C5N      -0.592100
      3 C1          -4.9430    -3.4970    -0.8630 c3         1 C5N       0.155900
      4 C2          -4.9090    -1.0630    -0.3800 ca         1 C5N       0.116100
      5 C3          -6.3200    -0.9950    -0.3380 ca         1 C5N      -0.211000
      6 C4          -6.9720     0.2240    -0.0940 ca         1 C5N       0.305000
      7 N1          -8.3830     0.2640    -0.0570 nh         1 C5N      -0.784400
      8 C5          -9.1120     1.2970     0.7490 c6         1 C5N       0.196300
      9 C6         -10.5760     0.8680     1.0920 c6         1 C5N       0.156800
     10 N2         -11.3620     0.4680    -0.1150 n3         1 C5N      -0.712600
     11 C7         -12.7580     0.1050     0.2080 c3         1 C5N       0.151100
     12 C8         -10.6400    -0.6130    -0.8530 c6         1 C5N       0.156800
     13 C9          -9.1760    -0.2140    -1.2350 c6         1 C5N       0.196300
     14 C10         -6.2010     1.3830     0.1050 ca         1 C5N      -0.179000
     15 C11         -4.7970     1.3280     0.0660 ca         1 C5N      -0.080000
     16 C12         -4.1330     0.1060    -0.1620 ca         1 C5N       0.257000
     17 N3          -2.7270     0.0050    -0.2190 nu         1 C5N      -0.914900
     18 C13         -1.6540     0.7530     0.2470 ca         1 C5N       0.392900
     19 N4          -1.8910     1.8180     1.0370 nb         1 C5N      -0.235000
     20 C14         -0.8150     2.5010     1.4720 ca         1 C5N       0.152900
     21 C15          0.4900     2.1110     1.1270 ca         1 C5N      -0.226300
     22 C16          1.7220     2.9290     1.5620 c6         1 C5N      -0.011100
     23 C17          3.0680     2.1380     1.5820 c6         1 C5N       0.001900
     24 C18          3.0860     1.0550     0.5220 cc         1 C5N      -0.100300
     25 C19          1.9710     0.5390    -0.0460 cd         1 C5N      -0.249500
     26 N5           2.4250    -0.4690    -0.9030 na         1 C5N       0.191800
     27 C20          1.6180    -1.3420    -1.7680 c3         1 C5N       0.074900
     28 N6           3.8100    -0.5840    -0.8820 nd         1 C5N      -0.518800
     29 C21          4.1920     0.3400    -0.0010 cc         1 C5N       0.190500
     30 C22          5.6190     0.5850     0.4100 c          1 C5N       0.540600
     31 N7           6.5090    -0.2440    -0.2540 ns         1 C5N      -0.163000
     32 C23          7.9170    -0.3460    -0.1240 ca         1 C5N      -0.039000
     33 C24          8.7410     0.0800    -1.1960 ca         1 C5N      -0.064800
     34 C25          8.1500     0.6600    -2.4830 c3         1 C5N      -0.029600
     35 C26          7.8250     2.1610    -2.3560 c3         1 C5N      -0.086600
     36 C27         10.1400    -0.0150    -1.0770 ca         1 C5N      -0.110000
     37 C28         10.7210    -0.5390     0.0860 ca         1 C5N      -0.104000
     38 C29          9.9070    -0.9810     1.1380 ca         1 C5N      -0.110000
     39 C30          8.5040    -0.8940     1.0480 ca         1 C5N      -0.064800
     40 C31          7.6650    -1.4400     2.2070 c3         1 C5N      -0.029600
     41 C32          7.0250    -2.8050     1.8860 c3         1 C5N      -0.086600
     42 C33          0.6200     0.9830     0.2960 ca         1 C5N       0.245500
     43 N8          -0.4530     0.2970    -0.1420 nb         1 C5N      -0.260000
     44 H1          -4.2260    -4.3080    -1.0410 h1         1 C5N       0.041033
     45 H2          -5.5550    -3.7690     0.0060 h1         1 C5N       0.041033
     46 H3          -5.5930    -3.4190    -1.7440 h1         1 C5N       0.041033
     47 H4          -6.9250    -1.8830    -0.4820 ha         1 C5N       0.120000
     48 H5          -8.5790     1.4870     1.6920 h1         1 C5N       0.044200
     49 H6          -9.1450     2.2450     0.1930 h1         1 C5N       0.044200
     50 H7         -10.5330     0.0310     1.8060 h1         1 C5N       0.039450
     51 H8         -11.0710     1.7030     1.6090 h1         1 C5N       0.039450
     52 H10        -13.2700     0.9380     0.7070 h1         1 C5N       0.031367
     53 H11        -13.3170    -0.1370    -0.7060 h1         1 C5N       0.031367
     54 H12        -12.7930    -0.7690     0.8730 h1         1 C5N       0.031367
     55 H13        -10.6010    -1.5250    -0.2390 h1         1 C5N       0.039450
     56 H14        -11.1820    -0.8720    -1.7740 h1         1 C5N       0.039450
     57 H15         -9.2170     0.5800    -1.9960 h1         1 C5N       0.044200
     58 H16         -8.6950    -1.0840    -1.7050 h1         1 C5N       0.044200
     59 H17         -6.6840     2.3410     0.2730 ha         1 C5N       0.117000
     60 H18         -4.2370     2.2470     0.1940 ha         1 C5N       0.150000
     61 H19         -2.4300    -0.8950    -0.5980 hn         1 C5N       0.523000
     62 H20         -1.0040     3.3730     2.0960 h4         1 C5N       0.023100
     63 H21          1.8280     3.7720     0.8650 hc         1 C5N       0.052700
     64 H22          3.8940     2.8490     1.4550 hc         1 C5N       0.069700
     65 H23          0.9790    -0.7270    -2.4120 h1         1 C5N       0.066033
     66 H24          2.2730    -1.9590    -2.3930 h1         1 C5N       0.066033
     67 H25          0.9930    -1.9930    -1.1460 h1         1 C5N       0.066033
     68 H26          6.0900    -0.8600    -0.9390 hn         1 C5N       0.173000
     69 H27          8.8520     0.5260    -3.3150 hc         1 C5N       0.047700
     70 H28          7.2430     0.1180    -2.7760 hc         1 C5N       0.047700
     71 H29          7.4180     2.5450    -3.2990 hc         1 C5N       0.035533
     72 H30          7.0840     2.3360    -1.5670 hc         1 C5N       0.035533
     73 H31          8.7290     2.7320    -2.1130 hc         1 C5N       0.035533
     74 H32         10.7820     0.3210    -1.8890 ha         1 C5N       0.112500
     75 H33         11.8030    -0.6110     0.1680 ha         1 C5N       0.113000
     76 H34         10.3730    -1.4030     2.0270 ha         1 C5N       0.112500
     77 H35          8.2870    -1.5550     3.1030 hc         1 C5N       0.047700
     78 H36          6.8790    -0.7330     2.4930 hc         1 C5N       0.047700
     79 H37          6.3360    -2.7280     1.0370 hc         1 C5N       0.035533
     80 H38          7.7970    -3.5430     1.6390 hc         1 C5N       0.035533
     81 H39          6.4600    -3.1750     2.7500 hc         1 C5N       0.035533
     82 H40          1.5500     3.3790     2.5490 hc         1 C5N       0.052700
     83 H41          3.2010     1.6820     2.5720 hc         1 C5N       0.069700
@<TRIPOS>BOND
     1     1     3 1   
     2     1     4 1   
     3     2    30 2   
     4     3    44 1   
     5     3    45 1   
     6     3    46 1   
     7     4     5 ar  
     8     4    16 ar  
     9     5     6 ar  
    10     5    47 1   
    11     6     7 1   
    12     6    14 ar  
    13     7     8 1   
    14     7    13 1   
    15     8     9 1   
    16     8    48 1   
    17     8    49 1   
    18     9    10 1   
    19     9    50 1   
    20     9    51 1   
    21    10    11 1   
    22    10    12 1   
    23    11    52 1   
    24    11    53 1   
    25    11    54 1   
    26    12    13 1   
    27    12    55 1   
    28    12    56 1   
    29    13    57 1   
    30    13    58 1   
    31    14    15 ar  
    32    14    59 1   
    33    15    16 ar  
    34    15    60 1   
    35    16    17 1   
    36    17    18 1   
    37    17    61 1   
    38    18    19 ar  
    39    18    43 ar  
    40    19    20 ar  
    41    20    21 ar  
    42    20    62 1   
    43    21    22 1   
    44    21    42 ar  
    45    22    23 1   
    46    22    63 1   
    47    22    82 1   
    48    23    24 1   
    49    23    64 1   
    50    23    83 1   
    51    24    25 2   
    52    24    29 1   
    53    25    26 1   
    54    25    42 1   
    55    26    27 1   
    56    26    28 1   
    57    27    65 1   
    58    27    66 1   
    59    27    67 1   
    60    28    29 2   
    61    29    30 1   
    62    30    31 1   
    63    31    32 1   
    64    31    68 1   
    65    32    33 ar  
    66    32    39 ar  
    67    33    34 1   
    68    33    36 ar  
    69    34    35 1   
    70    34    69 1   
    71    34    70 1   
    72    35    71 1   
    73    35    72 1   
    74    35    73 1   
    75    36    37 ar  
    76    36    74 1   
    77    37    38 ar  
    78    37    75 1   
    79    38    39 ar  
    80    38    76 1   
    81    39    40 1   
    82    40    41 1   
    83    40    77 1   
    84    40    78 1   
    85    41    79 1   
    86    41    80 1   
    87    41    81 1   
    88    42    43 ar  
@<TRIPOS>SUBSTRUCTURE
     1 C5N         1 TEMP              0 ****  ****    0 ROOT
