@<TRIPOS>MOLECULE
C5O
   15    15     1     0     0
SMALL
No Charge or Current Charge


@<TRIPOS>ATOM
      1 CAE        -40.1570    24.2120    -7.1930 c3         1 C5O      -0.049800
      2 CAB        -40.8950    24.5660    -8.4750 ca         1 C5O      -0.061300
      3 CAC        -42.2370    24.1750    -8.6540 ca         1 C5O      -0.111500
      4 CAF        -42.9200    24.5050    -9.8370 ca         1 C5O      -0.081000
      5 CAH        -42.2640    25.2290   -10.8470 ca         1 C5O      -0.021900
      6 Br         -43.1930    25.6790   -12.4570 br         1 C5O      -0.103100
      7 CAG        -40.9270    25.6250   -10.6750 ca         1 C5O      -0.081000
      8 CAD        -40.2440    25.2940    -9.4910 ca         1 C5O      -0.111500
      9 H1         -40.2820    25.0000    -6.4410 hc         1 C5O       0.045033
     10 H2         -40.5310    23.2750    -6.7620 hc         1 C5O       0.045033
     11 H3         -39.0830    24.0860    -7.3720 hc         1 C5O       0.045033
     12 H4         -42.7510    23.6160    -7.8750 ha         1 C5O       0.115000
     13 H5         -43.9560    24.2000    -9.9700 ha         1 C5O       0.128000
     14 H6         -40.4200    26.1870   -11.4560 ha         1 C5O       0.128000
     15 H7         -39.2100    25.6050    -9.3630 ha         1 C5O       0.115000
@<TRIPOS>BOND
     1     1     2 1   
     2     1     9 1   
     3     1    10 1   
     4     1    11 1   
     5     2     3 ar  
     6     2     8 ar  
     7     3     4 ar  
     8     3    12 1   
     9     4     5 ar  
    10     4    13 1   
    11     5     6 1   
    12     5     7 ar  
    13     7     8 ar  
    14     7    14 1   
    15     8    15 1   
@<TRIPOS>SUBSTRUCTURE
     1 C5O         1 TEMP              0 ****  ****    0 ROOT
