@<TRIPOS>MOLECULE
C5O
   15    15     1     0     0
SMALL
bcc


@<TRIPOS>ATOM
      1 CAE        -40.1680    24.2160    -7.2120 c3         1 C5O      -0.049800
      2 CAB        -40.8920    24.5600    -8.4800 ca         1 C5O      -0.061300
      3 CAC        -42.2230    24.1920    -8.6670 ca         1 C5O      -0.129500
      4 CAF        -42.9100    24.5190    -9.8270 ca         1 C5O      -0.099000
      5 CAH        -42.2530    25.2300   -10.8210 ca         1 C5O      -0.021900
      6 BR         -43.1690    25.6660   -12.4170 br         1 C5O      -0.103100
      7 CAG        -40.9310    25.6150   -10.6650 ca         1 C5O      -0.099000
      8 CAD        -40.2630    25.2750    -9.4960 ca         1 C5O      -0.129500
      9 H1         -40.3380    24.9770    -6.4470 hc         1 C5O       0.045033
     10 H2         -40.5080    23.2660    -6.8020 hc         1 C5O       0.045033
     11 H3         -39.0920    24.1510    -7.3710 hc         1 C5O       0.045033
     12 H4         -42.7380    23.6310    -7.8960 ha         1 C5O       0.133000
     13 H5         -43.9410    24.2150    -9.9470 ha         1 C5O       0.146000
     14 H6         -40.4150    26.1690   -11.4380 ha         1 C5O       0.146000
     15 H7         -39.2280    25.5740    -9.3810 ha         1 C5O       0.133000
@<TRIPOS>BOND
     1     1     2 1   
     2     1     9 1   
     3     1    10 1   
     4     1    11 1   
     5     2     3 ar  
     6     2     8 ar  
     7     3     4 ar  
     8     3    12 1   
     9     4     5 ar  
    10     4    13 1   
    11     5     6 1   
    12     5     7 ar  
    13     7     8 ar  
    14     7    14 1   
    15     8    15 1   
@<TRIPOS>SUBSTRUCTURE
     1 C5O         1 TEMP              0 ****  ****    0 ROOT
