@<TRIPOS>MOLECULE
C5P
   33    34     1     0     0
SMALL
No Charge or Current Charge


@<TRIPOS>ATOM
      1 O3P         -4.6810     1.4560    -1.4120 o          1 C5P      -0.925833
      2 P           -3.8990     0.2950    -0.9060 p5         1 C5P       1.272900
      3 O1P         -4.8310    -0.6780    -0.2750 o          1 C5P      -0.925833
      4 O2P         -3.1870    -0.3410    -2.0460 o          1 C5P      -0.925833
      5 O5          -2.8550     0.8320     0.1980 os         1 C5P      -0.570400
      6 C5          -2.0760    -0.0620     1.0210 c3         1 C5P       0.250600
      7 C4          -0.9590    -0.7960     0.2180 c5         1 C5P       0.159300
      8 O4           0.0080     0.1410    -0.3020 os         1 C5P      -0.401000
      9 C3          -0.0610    -1.7370     1.0820 c5         1 C5P       0.090300
     10 O3          -0.6890    -2.9880     1.4430 oh         1 C5P      -0.711000
     11 C2           1.1320    -1.9840     0.1040 c5         1 C5P       0.096300
     12 O2           0.8140    -3.1320    -0.6950 oh         1 C5P      -0.744000
     13 C1           1.1510    -0.6340    -0.7140 c5         1 C5P       0.321700
     14 N1           2.4560     0.0400    -0.4680 n          1 C5P      -0.302000
     15 C9           2.6760     0.8030     0.7020 c          1 C5P       0.715400
     16 N3           3.8800     1.4450     0.8390 nc         1 C5P      -0.774100
     17 C8           4.7840     1.3350    -0.0720 cd         1 C5P       0.779500
     18 C7           4.6430     0.5820    -1.2500 cd         1 C5P      -0.522600
     19 C6           3.4500    -0.0760    -1.4350 cc         1 C5P       0.048600
     20 O6           1.8620     0.8930     1.6060 o          1 C5P      -0.519000
     21 N4           5.8980     1.9970     0.1560 nv         1 C5P      -1.054200
     22 H5'1        -2.7260    -0.8140     1.4860 h1         1 C5P       0.014700
     23 H5'2        -1.6050     0.5030     1.8360 h1         1 C5P       0.014700
     24 H4          -1.4030    -1.3580    -0.6120 h1         1 C5P       0.061700
     25 H3           0.2930    -1.2050     1.9780 h1         1 C5P       0.088700
     26 HO3         -1.1600    -2.8530     2.3000 ho         1 C5P       0.490000
     27 H2'1         2.0670    -2.1490     0.6570 h1         1 C5P       0.048700
     28 HO2          0.1240    -3.5770    -0.1330 ho         1 C5P       0.522000
     29 H1           1.0860    -0.8360    -1.7900 h2         1 C5P       0.047700
     30 H5           5.4420     0.5210    -1.9790 ha         1 C5P       0.183000
     31 H6           3.1810    -0.6990    -2.2850 h4         1 C5P       0.195000
     32 HN41         5.8030     2.7080     0.8680 hn         1 C5P       0.487500
     33 HN42         6.4320     2.2560    -0.6620 hn         1 C5P       0.487500
@<TRIPOS>BOND
     1     1     2 1   
     2     2     3 1   
     3     2     4 1   
     4     2     5 1   
     5     5     6 1   
     6     6     7 1   
     7     6    22 1   
     8     6    23 1   
     9     7     8 1   
    10     7     9 1   
    11     7    24 1   
    12     8    13 1   
    13     9    10 1   
    14     9    11 1   
    15     9    25 1   
    16    10    26 1   
    17    11    12 1   
    18    11    13 1   
    19    11    27 1   
    20    12    28 1   
    21    13    14 1   
    22    13    29 1   
    23    14    15 1   
    24    14    19 1   
    25    15    16 1   
    26    15    20 2   
    27    16    17 2   
    28    17    18 1   
    29    17    21 1   
    30    18    19 2   
    31    18    30 1   
    32    19    31 1   
    33    21    32 1   
    34    21    33 1   
@<TRIPOS>SUBSTRUCTURE
     1 C5P         1 TEMP              0 ****  ****    0 ROOT
