@<TRIPOS>MOLECULE
C5P
   33    34     1     0     0
SMALL
abcg2


@<TRIPOS>ATOM
      1 O3P         -4.2500     1.8830    -1.5890 o          1 C5P      -0.925833
      2 P           -3.9030     1.2080    -0.2680 p5         1 C5P       1.272900
      3 O1P         -3.4530     2.1510     0.8430 o          1 C5P      -0.925833
      4 O2P         -4.8860     0.1340     0.1840 o          1 C5P      -0.925833
      5 O5          -2.4930     0.3500    -0.7120 os         1 C5P      -0.570400
      6 C5          -1.8380    -0.3480     0.3000 c3         1 C5P       0.250600
      7 C4          -0.7980    -1.2740    -0.2860 c5         1 C5P       0.159300
      8 O4           0.2340    -0.5210    -0.9050 os         1 C5P      -0.401000
      9 C3          -0.1060    -2.1380     0.7650 c5         1 C5P       0.090300
     10 O3          -0.8100    -3.3460     0.9300 oh         1 C5P      -0.711000
     11 C2           1.2990    -2.3530     0.1720 c5         1 C5P       0.096300
     12 O2           1.3300    -3.5320    -0.5940 oh         1 C5P      -0.744000
     13 C1           1.4700    -1.1630    -0.7880 c5         1 C5P       0.321700
     14 N1           2.4890    -0.1840    -0.4380 n          1 C5P      -0.302000
     15 C9           2.4660     0.4630     0.8080 c          1 C5P       0.715400
     16 N3           3.3890     1.4160     1.0520 nc         1 C5P      -0.774100
     17 C8           4.2870     1.7440     0.1450 cd         1 C5P       0.779500
     18 C7           4.3350     1.1150    -1.1370 cd         1 C5P      -0.522600
     19 C6           3.4080     0.1670    -1.3710 cc         1 C5P       0.048600
     20 O6           1.6220     0.1410     1.6320 o          1 C5P      -0.519000
     21 N4           5.1730     2.6920     0.4460 nv         1 C5P      -1.054200
     22 H5'1        -2.5330    -0.9690     0.8850 h1         1 C5P       0.014700
     23 H5'2        -1.3390     0.3240     1.0120 h1         1 C5P       0.014700
     24 H4          -1.2730    -1.9330    -1.0290 h1         1 C5P       0.061700
     25 H3          -0.0290    -1.5970     1.7080 h1         1 C5P       0.088700
     26 HO3         -0.6680    -3.6670     1.8260 ho         1 C5P       0.490000
     27 H2'1         2.0770    -2.3750     0.9420 h1         1 C5P       0.048700
     28 HO2          0.6310    -4.1020    -0.2420 ho         1 C5P       0.522000
     29 H1           1.7870    -1.5640    -1.7560 h2         1 C5P       0.047700
     30 H5           5.0640     1.3840    -1.8860 ha         1 C5P       0.183000
     31 H6           3.3620    -0.3590    -2.3140 h4         1 C5P       0.195000
     32 HN41         5.1430     3.1500     1.3410 hn         1 C5P       0.487500
     33 HN42         5.8650     2.9940    -0.2170 hn         1 C5P       0.487500
@<TRIPOS>BOND
     1     1     2 1   
     2     2     3 1   
     3     2     4 1   
     4     2     5 1   
     5     5     6 1   
     6     6     7 1   
     7     6    22 1   
     8     6    23 1   
     9     7     8 1   
    10     7     9 1   
    11     7    24 1   
    12     8    13 1   
    13     9    10 1   
    14     9    11 1   
    15     9    25 1   
    16    10    26 1   
    17    11    12 1   
    18    11    13 1   
    19    11    27 1   
    20    12    28 1   
    21    13    14 1   
    22    13    29 1   
    23    14    15 1   
    24    14    19 1   
    25    15    16 1   
    26    15    20 2   
    27    16    17 2   
    28    17    18 1   
    29    17    21 1   
    30    18    19 2   
    31    18    30 1   
    32    19    31 1   
    33    21    32 1   
    34    21    33 1   
@<TRIPOS>SUBSTRUCTURE
     1 C5P         1 TEMP              0 ****  ****    0 ROOT
