@<TRIPOS>MOLECULE
C5Q
   34    37     1     0     0
SMALL
bcc


@<TRIPOS>ATOM
      1 C1           3.7640     2.0900    -0.1800 ca         1 C5Q      -0.178000
      2 C2           4.5840     1.3750    -1.0690 ca         1 C5Q      -0.130000
      3 C3           2.7480     1.4610     0.5150 ca         1 C5Q      -0.072000
      4 C4          -0.8660     1.4860     1.5450 ca         1 C5Q      -0.156000
      5 C5           4.4050     0.0200    -1.2760 ca         1 C5Q      -0.153000
      6 C6          -1.8890     2.2570     0.9770 ca         1 C5Q      -0.149000
      7 C7           2.5410     0.0900     0.3250 ca         1 C5Q      -0.081800
      8 C8          -0.6460     0.1590     1.2030 ca         1 C5Q      -0.053300
      9 C9          -1.4630    -0.4730     0.2370 ca         1 C5Q      -0.089600
     10 C10          3.3800    -0.6100    -0.5720 ca         1 C5Q      -0.055200
     11 C11         -2.6660     1.6300     0.0390 ca         1 C5Q       0.023100
     12 C12         -2.4430     0.3120    -0.3260 ca         1 C5Q       0.067100
     13 C13          1.9240    -2.0590     0.2900 cc         1 C5Q      -0.063100
     14 C14          1.6160    -0.8600     0.8690 cd         1 C5Q      -0.132400
     15 C15          0.5120    -0.5770     1.8390 c3         1 C5Q       0.055100
     16 C16         -1.3280    -1.9310    -0.1820 c          1 C5Q       0.936200
     17 C17         -4.0720     1.1300    -1.6030 c5         1 C5Q       0.324200
     18 N18          2.9790    -1.9130    -0.5680 na         1 C5Q      -0.179400
     19 O19         -1.2800    -2.1430    -1.4050 o          1 C5Q      -0.818300
     20 O20         -1.3120    -2.7730     0.7350 o          1 C5Q      -0.818300
     21 O21         -3.7380     2.1190    -0.6390 os         1 C5Q      -0.348900
     22 O22         -3.3830    -0.0550    -1.2400 os         1 C5Q      -0.291900
     23 H1           3.9340     3.1500    -0.0410 ha         1 C5Q       0.112000
     24 H2           5.3710     1.8950    -1.5990 ha         1 C5Q       0.109000
     25 H3           2.1220     2.0250     1.1960 ha         1 C5Q       0.129000
     26 H5           5.0400    -0.5320    -1.9590 ha         1 C5Q       0.116000
     27 H13          1.4510    -3.0180     0.4240 h4         1 C5Q       0.192000
     28 H15          0.8950     0.0330     2.6620 hc         1 C5Q       0.051700
     29 H15A         0.1660    -1.5120     2.2770 hc         1 C5Q       0.051700
     30 H17         -5.1470     0.9520    -1.5920 h2         1 C5Q       0.040700
     31 H17A        -3.7510     1.4580    -2.5980 h2         1 C5Q       0.040700
     32 HN18         3.3750    -2.6520    -1.1240 hn         1 C5Q       0.290700
     33 H4          -0.2230     1.9500     2.2840 ha         1 C5Q       0.108000
     34 H6          -2.0540     3.2850     1.2700 ha         1 C5Q       0.123000
@<TRIPOS>BOND
     1     1     2 ar  
     2     1     3 ar  
     3     1    23 1   
     4     2     5 ar  
     5     2    24 1   
     6     3     7 ar  
     7     3    25 1   
     8     4     6 ar  
     9     4     8 ar  
    10     4    33 1   
    11     5    10 ar  
    12     5    26 1   
    13     6    11 ar  
    14     6    34 1   
    15     7    10 ar  
    16     7    14 1   
    17     8     9 ar  
    18     8    15 1   
    19     9    12 ar  
    20     9    16 1   
    21    10    18 1   
    22    11    12 ar  
    23    11    21 1   
    24    12    22 1   
    25    13    14 2   
    26    13    18 1   
    27    13    27 1   
    28    14    15 1   
    29    15    28 1   
    30    15    29 1   
    31    16    19 1   
    32    16    20 1   
    33    17    21 1   
    34    17    22 1   
    35    17    30 1   
    36    17    31 1   
    37    18    32 1   
@<TRIPOS>SUBSTRUCTURE
     1 C5Q         1 TEMP              0 ****  ****    0 ROOT
