@<TRIPOS>MOLECULE
C5Q
   34    37     1     0     0
SMALL
No Charge or Current Charge


@<TRIPOS>ATOM
      1 C1           3.7300     2.1170    -0.2290 ca         1 C5Q      -0.160000
      2 C2           4.6150     1.3950    -1.0680 ca         1 C5Q      -0.112000
      3 C3           2.6970     1.4490     0.4640 ca         1 C5Q      -0.054000
      4 C4          -0.8430     1.5190     1.5360 ca         1 C5Q      -0.138000
      5 C5           4.4730    -0.0020    -1.2210 ca         1 C5Q      -0.135000
      6 C6          -1.8930     2.2710     0.9730 ca         1 C5Q      -0.131000
      7 C7           2.5860     0.0630     0.2870 ca         1 C5Q      -0.081800
      8 C8          -0.6250     0.1690     1.1550 ca         1 C5Q      -0.053300
      9 C9          -1.4830    -0.4380     0.1920 ca         1 C5Q      -0.089600
     10 C10          3.4390    -0.6350    -0.5210 ca         1 C5Q      -0.055200
     11 C11         -2.7090     1.6490     0.0260 ca         1 C5Q       0.023100
     12 C12         -2.5150     0.3490    -0.3500 ca         1 C5Q       0.067100
     13 C13          1.9800    -2.1720     0.3460 cc         1 C5Q      -0.113100
     14 C14          1.6630    -0.9070     0.8340 cd         1 C5Q      -0.132400
     15 C15          0.5360    -0.6000     1.7900 c3         1 C5Q       0.055100
     16 C16         -1.3290    -1.8710    -0.2450 c          1 C5Q       0.725600
     17 C17         -4.1920     1.1710    -1.5360 c5         1 C5Q       0.370600
     18 N18          3.0930    -1.9740    -0.5000 na         1 C5Q      -0.229700
     19 O19         -1.0350    -2.0950    -1.4120 o          1 C5Q      -0.713000
     20 O20         -1.5450    -2.7530     0.5770 o          1 C5Q      -0.713000
     21 O21         -3.7750     2.2180    -0.5920 os         1 C5Q      -0.372100
     22 O22         -3.4500    -0.0630    -1.2480 os         1 C5Q      -0.315100
     23 H1           3.8480     3.1920    -0.1180 ha         1 C5Q       0.094000
     24 H2           5.4070     1.9190    -1.5970 ha         1 C5Q       0.091000
     25 H3           2.0140     1.9930     1.1110 ha         1 C5Q       0.111000
     26 H5           5.1470    -0.5660    -1.8620 ha         1 C5Q       0.098000
     27 H13          1.5230    -3.1420     0.5200 h4         1 C5Q       0.242000
     28 H15          0.9410    -0.0320     2.6360 hc         1 C5Q       0.051700
     29 H15A         0.1630    -1.5290     2.2370 hc         1 C5Q       0.051700
     30 H17         -5.2690     0.9890    -1.4400 h2         1 C5Q       0.040700
     31 H17A        -3.9520     1.4980    -2.5550 h2         1 C5Q       0.040700
     32 HN18         3.5700    -2.7030    -1.0200 hn         1 C5Q       0.341000
     33 H4          -0.1980     1.9880     2.2750 ha         1 C5Q       0.090000
     34 H6          -2.0660     3.3030     1.2680 ha         1 C5Q       0.105000
@<TRIPOS>BOND
     1     1     2 ar  
     2     1     3 ar  
     3     1    23 1   
     4     2     5 ar  
     5     2    24 1   
     6     3     7 ar  
     7     3    25 1   
     8     4     6 ar  
     9     4     8 ar  
    10     4    33 1   
    11     5    10 ar  
    12     5    26 1   
    13     6    11 ar  
    14     6    34 1   
    15     7    10 ar  
    16     7    14 1   
    17     8     9 ar  
    18     8    15 1   
    19     9    12 ar  
    20     9    16 1   
    21    10    18 1   
    22    11    12 ar  
    23    11    21 1   
    24    12    22 1   
    25    13    14 2   
    26    13    18 1   
    27    13    27 1   
    28    14    15 1   
    29    15    28 1   
    30    15    29 1   
    31    16    19 1   
    32    16    20 1   
    33    17    21 1   
    34    17    22 1   
    35    17    30 1   
    36    17    31 1   
    37    18    32 1   
@<TRIPOS>SUBSTRUCTURE
     1 C5Q         1 TEMP              0 ****  ****    0 ROOT
