@<TRIPOS>MOLECULE
C5R
   73    77     1     0     0
SMALL
bcc


@<TRIPOS>ATOM
      1 N1           2.3250     0.9270     0.0410 ns         1 C5R      -0.528900
      2 C6          -3.6850    -0.5020    -0.3380 ca         1 C5R      -0.057300
      3 C7          -4.8120    -0.6070    -1.1610 ca         1 C5R      -0.131000
      4 C8          -6.0860    -0.3170    -0.7080 ca         1 C5R      -0.136000
      5 C9          -6.2940     0.0910     0.6090 ca         1 C5R      -0.084300
      6 C10         -7.6700     0.4240     1.1350 c3         1 C5R      -0.011400
      7 C11         -8.2830     1.6160     0.3990 c3         1 C5R      -0.082100
      8 C12         -8.6080    -0.7820     1.0880 c3         1 C5R      -0.082100
      9 C13         -5.1810     0.1860     1.4280 ca         1 C5R      -0.133000
     10 N2           5.7420    -1.3340     1.9630 na         1 C5R      -0.182400
     11 O3           3.2150     4.3790     0.3860 o          1 C5R      -0.828300
     12 C22          2.8070     3.3630    -0.2140 c          1 C5R       0.931600
     13 O2           2.2050     3.3170    -1.2990 o          1 C5R      -0.828300
     14 C21          3.1710     2.0170     0.4620 c3         1 C5R      -0.026300
     15 C23          4.6380     1.6850     0.1450 c3         1 C5R      -0.019200
     16 C24          5.0710     0.3400     0.6300 cc         1 C5R      -0.102400
     17 C27          5.5130     0.0110     1.8800 cd         1 C5R      -0.124100
     18 C26          5.4550    -1.9160     0.7650 ca         1 C5R      -0.051200
     19 C31          5.5240    -3.2490     0.3630 ca         1 C5R      -0.158000
     20 C30          5.1590    -3.5460    -0.9360 ca         1 C5R      -0.120000
     21 C29          4.7390    -2.5410    -1.8230 ca         1 C5R      -0.176000
     22 C28          4.6770    -1.2200    -1.4230 ca         1 C5R      -0.075000
     23 C25          5.0310    -0.8890    -0.1080 ca         1 C5R      -0.098800
     24 C1           1.0000     0.9360     0.2400 c          1 C5R       0.665100
     25 O1           0.4660     1.8020     0.9230 o          1 C5R      -0.616100
     26 C2           0.2180    -0.1890    -0.4740 c6         1 C5R      -0.112000
     27 C3           0.8830    -1.5420    -0.1860 c3         1 C5R      -0.082100
     28 C19          0.2890     0.1690    -1.9770 c6         1 C5R      -0.073400
     29 C18         -0.7020    -0.6060    -2.8280 c6         1 C5R      -0.071400
     30 C17         -2.1280    -0.4190    -2.3300 c6         1 C5R      -0.065400
     31 C5          -2.3010    -0.8810    -0.8740 c6         1 C5R       0.012300
     32 C20         -2.2400    -2.4210    -0.8410 c3         1 C5R      -0.077100
     33 C4          -1.2510    -0.1420     0.0010 c6         1 C5R      -0.037700
     34 C16         -1.4420    -0.5200     1.4680 c6         1 C5R      -0.062400
     35 C15         -2.7520     0.0680     1.9610 c6         1 C5R      -0.035100
     36 C14         -3.8870    -0.1010     0.9850 ca         1 C5R      -0.057300
     37 H1           2.7060     0.2540    -0.6010 hn         1 C5R       0.295500
     38 H2          -4.6970    -0.9250    -2.1900 ha         1 C5R       0.124000
     39 H3          -6.9210    -0.4090    -1.3940 ha         1 C5R       0.118000
     40 H4          -7.5530     0.7100     2.1850 hc         1 C5R       0.044700
     41 H5          -8.4670     1.3860    -0.6530 hc         1 C5R       0.030867
     42 H6          -9.2400     1.8900     0.8470 hc         1 C5R       0.030867
     43 H7          -7.6300     2.4890     0.4400 hc         1 C5R       0.030867
     44 H8          -8.1950    -1.6310     1.6360 hc         1 C5R       0.030867
     45 H9          -9.5730    -0.5330     1.5340 hc         1 C5R       0.030867
     46 H10         -8.7950    -1.1060     0.0630 hc         1 C5R       0.030867
     47 H11         -5.3150     0.4940     2.4610 ha         1 C5R       0.120000
     48 H12          6.0860    -1.8100     2.7800 hn         1 C5R       0.286700
     49 H14          3.0810     2.1320     1.5470 h1         1 C5R       0.052700
     50 H15          4.7950     1.7520    -0.9360 hc         1 C5R       0.057700
     51 H16          5.2550     2.4670     0.5900 hc         1 C5R       0.057700
     52 H17          5.6830     0.6490     2.7350 h4         1 C5R       0.163000
     53 H18          5.8490    -4.0270     1.0440 ha         1 C5R       0.118000
     54 H19          5.1980    -4.5720    -1.2770 ha         1 C5R       0.114000
     55 H20          4.4630    -2.8070    -2.8350 ha         1 C5R       0.120000
     56 H21          4.3660    -0.4550    -2.1260 ha         1 C5R       0.143000
     57 H22          0.8830    -1.7640     0.8820 hc         1 C5R       0.031033
     58 H23          0.3690    -2.3590    -0.6850 hc         1 C5R       0.031033
     59 H24          1.9210    -1.5850    -0.5200 hc         1 C5R       0.031033
     60 H25          0.0960     1.2400    -2.0950 hc         1 C5R       0.064200
     61 H26          1.3040     0.0060    -2.3510 hc         1 C5R       0.064200
     62 H27         -0.6310    -0.2630    -3.8630 hc         1 C5R       0.029200
     63 H28         -0.4390    -1.6670    -2.8480 hc         1 C5R       0.029200
     64 H29         -2.4010     0.6390    -2.4100 hc         1 C5R       0.037200
     65 H30         -2.8080    -0.9660    -2.9870 hc         1 C5R       0.037200
     66 H31         -3.1260    -2.8280    -1.3330 hc         1 C5R       0.029700
     67 H32         -1.3770    -2.8230    -1.3680 hc         1 C5R       0.029700
     68 H33         -2.2250    -2.8160     0.1740 hc         1 C5R       0.029700
     69 H34         -1.5370     0.9140    -0.0860 hc         1 C5R       0.081700
     70 H35         -1.4420    -1.6040     1.5960 hc         1 C5R       0.046200
     71 H36         -0.6280    -0.1410     2.0840 hc         1 C5R       0.046200
     72 H37         -3.0330    -0.3590     2.9270 hc         1 C5R       0.050700
     73 H38         -2.6070     1.1400     2.1380 hc         1 C5R       0.050700
@<TRIPOS>BOND
     1     1    14 1   
     2     1    24 1   
     3     1    37 1   
     4     2     3 ar  
     5     2    31 1   
     6     2    36 ar  
     7     3     4 ar  
     8     3    38 1   
     9     4     5 ar  
    10     4    39 1   
    11     5     6 1   
    12     5     9 ar  
    13     6     7 1   
    14     6     8 1   
    15     6    40 1   
    16     7    41 1   
    17     7    42 1   
    18     7    43 1   
    19     8    44 1   
    20     8    45 1   
    21     8    46 1   
    22     9    36 ar  
    23     9    47 1   
    24    10    17 1   
    25    10    18 1   
    26    10    48 1   
    27    11    12 1   
    28    12    13 1   
    29    12    14 1   
    30    14    15 1   
    31    14    49 1   
    32    15    16 1   
    33    15    50 1   
    34    15    51 1   
    35    16    17 2   
    36    16    23 1   
    37    17    52 1   
    38    18    19 ar  
    39    18    23 ar  
    40    19    20 ar  
    41    19    53 1   
    42    20    21 ar  
    43    20    54 1   
    44    21    22 ar  
    45    21    55 1   
    46    22    23 ar  
    47    22    56 1   
    48    24    25 2   
    49    24    26 1   
    50    26    27 1   
    51    26    28 1   
    52    26    33 1   
    53    27    57 1   
    54    27    58 1   
    55    27    59 1   
    56    28    29 1   
    57    28    60 1   
    58    28    61 1   
    59    29    30 1   
    60    29    62 1   
    61    29    63 1   
    62    30    31 1   
    63    30    64 1   
    64    30    65 1   
    65    31    32 1   
    66    31    33 1   
    67    32    66 1   
    68    32    67 1   
    69    32    68 1   
    70    33    34 1   
    71    33    69 1   
    72    34    35 1   
    73    34    70 1   
    74    34    71 1   
    75    35    36 1   
    76    35    72 1   
    77    35    73 1   
@<TRIPOS>SUBSTRUCTURE
     1 C5R         1 TEMP              0 ****  ****    0 ROOT
