@<TRIPOS>MOLECULE
C5R
   73    77     1     0     0
SMALL
No Charge or Current Charge


@<TRIPOS>ATOM
      1 N1           1.7490     1.2040     0.0440 ns         1 C5R      -0.461900
      2 C6          -3.5940    -0.6590    -0.2720 ca         1 C5R      -0.057300
      3 C7          -4.6840    -0.7050    -1.1700 ca         1 C5R      -0.113000
      4 C8          -5.9320    -0.1610    -0.8270 ca         1 C5R      -0.118000
      5 C9          -6.1280     0.4360     0.4300 ca         1 C5R      -0.084300
      6 C10         -7.4830     1.0340     0.8160 c3         1 C5R      -0.011400
      7 C11         -7.8700     2.2070    -0.1120 c3         1 C5R      -0.082100
      8 C12         -8.5870    -0.0460     0.8610 c3         1 C5R      -0.082100
      9 C13         -5.0550     0.4690     1.3380 ca         1 C5R      -0.115000
     10 N2           5.7770    -0.9800     1.6150 na         1 C5R      -0.232700
     11 O3           1.9840     4.4410     1.2370 o          1 C5R      -0.723000
     12 C22          2.1290     3.6600     0.3070 c          1 C5R       0.721000
     13 O2           1.7950     3.9190    -0.8430 o          1 C5R      -0.723000
     14 C21          2.6570     2.2280     0.6230 c3         1 C5R      -0.026300
     15 C23          4.1250     2.0690     0.1510 c3         1 C5R      -0.019200
     16 C24          4.7450     0.7360     0.4890 cc         1 C5R      -0.102400
     17 C27          5.3700     0.3760     1.6800 cd         1 C5R      -0.174100
     18 C26          5.3940    -1.4310     0.3660 ca         1 C5R      -0.051200
     19 C31          5.5720    -2.7110    -0.1760 ca         1 C5R      -0.140000
     20 C30          5.1050    -2.9510    -1.4860 ca         1 C5R      -0.102000
     21 C29          4.4820    -1.9150    -2.2210 ca         1 C5R      -0.158000
     22 C28          4.3180    -0.6360    -1.6500 ca         1 C5R      -0.057000
     23 C25          4.7830    -0.4350    -0.3420 ca         1 C5R      -0.098800
     24 C1           1.3830     0.0150     0.6510 c          1 C5R       0.598100
     25 O1           1.8590    -0.2960     1.7370 o          1 C5R      -0.616100
     26 C2           0.4570    -0.9680    -0.1730 c6         1 C5R      -0.112000
     27 C3           0.9340    -2.4240     0.1790 c3         1 C5R      -0.082100
     28 C19          0.6200    -0.7140    -1.7190 c6         1 C5R      -0.073400
     29 C18         -0.3950    -1.4780    -2.5940 c6         1 C5R      -0.071400
     30 C17         -1.8420    -1.0860    -2.2200 c6         1 C5R      -0.065400
     31 C5          -2.1990    -1.3280    -0.6920 c6         1 C5R       0.012300
     32 C20         -2.3090    -2.9100    -0.4770 c3         1 C5R      -0.077100
     33 C4          -1.0630    -0.6330     0.1750 c6         1 C5R      -0.037700
     34 C16         -1.4050    -0.7620     1.6880 c6         1 C5R      -0.062400
     35 C15         -2.6880     0.0110     2.0460 c6         1 C5R      -0.035100
     36 C14         -3.8000    -0.0780     1.0040 ca         1 C5R      -0.057300
     37 H1           1.3390     1.4030    -0.8590 hn         1 C5R       0.295500
     38 H2          -4.5790    -1.1740    -2.1430 ha         1 C5R       0.106000
     39 H3          -6.7480    -0.2110    -1.5440 ha         1 C5R       0.100000
     40 H4          -7.4110     1.4490     1.8300 hc         1 C5R       0.044700
     41 H5          -8.0150     1.8660    -1.1430 hc         1 C5R       0.030867
     42 H6          -8.8010     2.6770     0.2270 hc         1 C5R       0.030867
     43 H7          -7.0840     2.9720    -0.1100 hc         1 C5R       0.030867
     44 H8          -8.3030    -0.8560     1.5430 hc         1 C5R       0.030867
     45 H9          -9.5320     0.3810     1.2160 hc         1 C5R       0.030867
     46 H10         -8.7590    -0.4780    -0.1330 hc         1 C5R       0.030867
     47 H11         -5.1920     0.9240     2.3160 ha         1 C5R       0.102000
     48 H12          6.2480    -1.5140     2.3390 hn         1 C5R       0.337000
     49 H14          2.6410     2.1220     1.7160 h1         1 C5R       0.052700
     50 H15          4.1740     2.2350    -0.9320 hc         1 C5R       0.057700
     51 H16          4.7260     2.8670     0.6040 hc         1 C5R       0.057700
     52 H17          5.5360     0.9790     2.5690 h4         1 C5R       0.213000
     53 H18          6.0570    -3.4990     0.3950 ha         1 C5R       0.100000
     54 H19          5.2280    -3.9350    -1.9330 ha         1 C5R       0.096000
     55 H20          4.1270    -2.1060    -3.2320 ha         1 C5R       0.102000
     56 H21          3.8420     0.1680    -2.2070 ha         1 C5R       0.125000
     57 H22          0.6210    -2.7260     1.1850 hc         1 C5R       0.031033
     58 H23          0.5900    -3.1840    -0.5220 hc         1 C5R       0.031033
     59 H24          2.0300    -2.4860     0.1500 hc         1 C5R       0.031033
     60 H25          0.4960     0.3490    -1.9630 hc         1 C5R       0.064200
     61 H26          1.6350    -0.9830    -2.0360 hc         1 C5R       0.064200
     62 H27         -0.2190    -1.2270    -3.6490 hc         1 C5R       0.029200
     63 H28         -0.2460    -2.5620    -2.5240 hc         1 C5R       0.029200
     64 H29         -1.9960    -0.0250    -2.4610 hc         1 C5R       0.037200
     65 H30         -2.5290    -1.6450    -2.8680 hc         1 C5R       0.037200
     66 H31         -3.1790    -3.2970    -1.0190 hc         1 C5R       0.029700
     67 H32         -1.4560    -3.4760    -0.8510 hc         1 C5R       0.029700
     68 H33         -2.4610    -3.1810     0.5720 hc         1 C5R       0.029700
     69 H34         -1.1580     0.4410    -0.0470 hc         1 C5R       0.081700
     70 H35         -1.5070    -1.8130     1.9820 hc         1 C5R       0.046200
     71 H36         -0.6040    -0.3650     2.3210 hc         1 C5R       0.046200
     72 H37         -3.0590    -0.3360     3.0200 hc         1 C5R       0.050700
     73 H38         -2.4320     1.0710     2.1840 hc         1 C5R       0.050700
@<TRIPOS>BOND
     1     1    14 1   
     2     1    24 1   
     3     1    37 1   
     4     2     3 ar  
     5     2    31 1   
     6     2    36 ar  
     7     3     4 ar  
     8     3    38 1   
     9     4     5 ar  
    10     4    39 1   
    11     5     6 1   
    12     5     9 ar  
    13     6     7 1   
    14     6     8 1   
    15     6    40 1   
    16     7    41 1   
    17     7    42 1   
    18     7    43 1   
    19     8    44 1   
    20     8    45 1   
    21     8    46 1   
    22     9    36 ar  
    23     9    47 1   
    24    10    17 1   
    25    10    18 1   
    26    10    48 1   
    27    11    12 1   
    28    12    13 1   
    29    12    14 1   
    30    14    15 1   
    31    14    49 1   
    32    15    16 1   
    33    15    50 1   
    34    15    51 1   
    35    16    17 2   
    36    16    23 1   
    37    17    52 1   
    38    18    19 ar  
    39    18    23 ar  
    40    19    20 ar  
    41    19    53 1   
    42    20    21 ar  
    43    20    54 1   
    44    21    22 ar  
    45    21    55 1   
    46    22    23 ar  
    47    22    56 1   
    48    24    25 2   
    49    24    26 1   
    50    26    27 1   
    51    26    28 1   
    52    26    33 1   
    53    27    57 1   
    54    27    58 1   
    55    27    59 1   
    56    28    29 1   
    57    28    60 1   
    58    28    61 1   
    59    29    30 1   
    60    29    62 1   
    61    29    63 1   
    62    30    31 1   
    63    30    64 1   
    64    30    65 1   
    65    31    32 1   
    66    31    33 1   
    67    32    66 1   
    68    32    67 1   
    69    32    68 1   
    70    33    34 1   
    71    33    69 1   
    72    34    35 1   
    73    34    70 1   
    74    34    71 1   
    75    35    36 1   
    76    35    72 1   
    77    35    73 1   
@<TRIPOS>SUBSTRUCTURE
     1 C5R         1 TEMP              0 ****  ****    0 ROOT
