@<TRIPOS>MOLECULE
C5S
   16    15     1     0     0
SMALL
abcg2


@<TRIPOS>ATOM
      1 C01         -0.9730     0.9470    -0.1990 c3         1 C5S      -0.199400
      2 C02          0.2910     0.1760     0.1600 c3         1 C5S      -0.023300
      3 C03          1.5500     1.0710     0.0260 c          1 C5S       0.712000
      4 O04          2.3800     0.7860    -0.8540 o          1 C5S      -0.758000
      5 O05          1.6000     2.0250     0.8300 o          1 C5S      -0.758000
      6 N06          0.3650    -1.0180    -0.6510 ns         1 C5S      -0.426900
      7 C07          1.1350    -2.0630    -0.3550 c          1 C5S       0.599900
      8 O08          1.7670    -2.2130     0.6810 o          1 C5S      -0.674100
      9 C09         -2.2710     0.1650     0.0730 c          1 C5S       0.709000
     10 O10         -2.3530    -0.4130     1.1750 o          1 C5S      -0.767500
     11 O11         -3.1490     0.1940    -0.8140 o          1 C5S      -0.767500
     12 H1          -0.9860     1.8580     0.4050 hc         1 C5S       0.026200
     13 H2          -0.9310     1.2690    -1.2450 hc         1 C5S       0.026200
     14 H3           0.2070    -0.1320     1.2050 h1         1 C5S       0.078700
     15 H5          -0.0250    -0.9880    -1.5790 hn         1 C5S       0.290500
     16 H7           1.1270    -2.8230    -1.1520 h5         1 C5S      -0.066800
@<TRIPOS>BOND
     1     1     2 1   
     2     1     9 1   
     3     1    12 1   
     4     1    13 1   
     5     2     3 1   
     6     2     6 1   
     7     2    14 1   
     8     3     4 1   
     9     3     5 1   
    10     6     7 1   
    11     6    15 1   
    12     7     8 2   
    13     7    16 1   
    14     9    10 1   
    15     9    11 1   
@<TRIPOS>SUBSTRUCTURE
     1 C5S         1 TEMP              0 ****  ****    0 ROOT
