@<TRIPOS>MOLECULE
C5S
   16    15     1     0     0
SMALL
No Charge or Current Charge


@<TRIPOS>ATOM
      1 C01         -0.9850     0.9180    -0.1680 c3         1 C5S      -0.199400
      2 C02          0.4210     0.3030     0.0990 c3         1 C5S      -0.023300
      3 C03          1.5640     1.3550    -0.0700 c          1 C5S       0.712000
      4 O04          1.8540     1.7350    -1.1980 o          1 C5S      -0.758000
      5 O05          2.1860     1.6990     0.9250 o          1 C5S      -0.758000
      6 N06          0.6840    -0.8780    -0.7570 ns         1 C5S      -0.426900
      7 C07          0.6400    -2.1930    -0.3480 c          1 C5S       0.599900
      8 O08          0.4150    -2.5400     0.8060 o          1 C5S      -0.674100
      9 C09         -2.1130    -0.0550     0.2170 c          1 C5S       0.709000
     10 O10         -2.5130    -0.0430     1.3720 o          1 C5S      -0.767500
     11 O11         -2.5740    -0.7850    -0.6470 o          1 C5S      -0.767500
     12 H1          -1.0290     1.8060     0.4740 hc         1 C5S       0.026200
     13 H2          -1.0220     1.1490    -1.2390 hc         1 C5S       0.026200
     14 H3           0.4540    -0.0150     1.1490 h1         1 C5S       0.078700
     15 H5           0.9090    -0.7180    -1.7320 hn         1 C5S       0.290500
     16 H7           0.8440    -2.8970    -1.1760 h5         1 C5S      -0.066800
@<TRIPOS>BOND
     1     1     2 1   
     2     1     9 1   
     3     1    12 1   
     4     1    13 1   
     5     2     3 1   
     6     2     6 1   
     7     2    14 1   
     8     3     4 1   
     9     3     5 1   
    10     6     7 1   
    11     6    15 1   
    12     7     8 2   
    13     7    16 1   
    14     9    10 1   
    15     9    11 1   
@<TRIPOS>SUBSTRUCTURE
     1 C5S         1 TEMP              0 ****  ****    0 ROOT
