@<TRIPOS>MOLECULE
C5U
   43    44     1     0     0
SMALL
No Charge or Current Charge


@<TRIPOS>ATOM
      1 C10          2.7240     0.4160    -0.6070 c          1 C5U       0.612800
      2 C13          3.6680    -1.4960    -1.7330 c3         1 C5U       0.154400
      3 C15          0.0950    -0.8610     0.7380 ca         1 C5U       0.004700
      4 C17         -0.0780    -1.3720     3.1370 ca         1 C5U      -0.080000
      5 C20          0.2390    -2.2610     0.4700 ca         1 C5U      -0.135200
      6 C24          2.5780     3.2670     0.5960 c3         1 C5U      -0.064900
      7 O01         -2.4930    -0.7010    -1.0010 o          1 C5U      -0.491000
      8 C02         -2.4410     0.4510    -0.5980 c          1 C5U       0.612800
      9 O03         -3.5520     1.2450    -0.5030 os         1 C5U      -0.450600
     10 C04         -4.8260     0.6890    -0.8760 c3         1 C5U       0.154400
     11 C05         -1.1560     1.1370    -0.1920 ce         1 C5U      -0.262900
     12 C06         -1.0750     2.4010     0.3050 c2         1 C5U       0.193300
     13 N07          0.1800     2.9080     0.6070 nu         1 C5U      -0.690000
     14 C08          1.4080     2.3360     0.3180 c2         1 C5U       0.193300
     15 C09          1.4340     1.0800    -0.1900 ce         1 C5U      -0.262900
     16 O11          3.8360     0.9040    -0.4660 o          1 C5U      -0.491000
     17 O12          2.5180    -0.7800    -1.2420 os         1 C5U      -0.450600
     18 C14          0.1210     0.2620    -0.3360 c6         1 C5U       0.120000
     19 C16         -0.0550    -0.4480     2.0830 ca         1 C5U      -0.120000
     20 C18          0.0590    -2.7380     2.8700 ca         1 C5U      -0.118000
     21 C19          0.2210    -3.1780     1.5490 ca         1 C5U      -0.064000
     22 O22         -0.3420    -2.5120    -1.7950 o          1 C5U      -0.395500
     23 O23          1.2460    -3.7700    -1.0080 o          1 C5U      -0.395500
     24 C25         -2.1850     3.3990     0.6010 c3         1 C5U      -0.064900
     25 H1           3.3580    -2.4240    -2.2300 h1         1 C5U       0.049367
     26 H2           4.2240    -0.8920    -2.4620 h1         1 C5U       0.049367
     27 H3           4.3450    -1.7600    -0.9100 h1         1 C5U       0.049367
     28 H4          -0.1970    -1.0260     4.1620 ha         1 C5U       0.117000
     29 H5           2.2650     4.2290     1.0200 hc         1 C5U       0.063700
     30 H6           3.2750     2.8150     1.3100 hc         1 C5U       0.063700
     31 H7           3.1300     3.4870    -0.3250 hc         1 C5U       0.063700
     32 H8          -5.6210     1.4350    -0.7470 h1         1 C5U       0.049367
     33 H9          -4.8240     0.3730    -1.9270 h1         1 C5U       0.049367
     34 H10         -5.0720    -0.1800    -0.2510 h1         1 C5U       0.049367
     35 H13          0.2030     3.8470     1.0060 hn         1 C5U       0.500000
     36 H17          0.1030    -0.1510    -1.3520 hc         1 C5U       0.111700
     37 H18         -0.1520     0.6080     2.3180 ha         1 C5U       0.118000
     38 H19          0.0440    -3.4570     3.6870 ha         1 C5U       0.124000
     39 H20          0.3300    -4.2460     1.3640 ha         1 C5U       0.143000
     40 H21         -2.9170     2.9770     1.2980 hc         1 C5U       0.063700
     41 H22         -1.8150     4.3250     1.0570 hc         1 C5U       0.063700
     42 H23         -2.7100     3.6860    -0.3170 hc         1 C5U       0.063700
     43 N21          0.4470    -2.8290    -0.9000 no         1 C5U       0.697200
@<TRIPOS>BOND
     1     1    15 1   
     2     1    16 2   
     3     1    17 1   
     4     2    17 1   
     5     2    25 1   
     6     2    26 1   
     7     2    27 1   
     8     3     5 ar  
     9     3    18 1   
    10     3    19 ar  
    11     4    19 ar  
    12     4    20 ar  
    13     4    28 1   
    14     5    21 ar  
    15     5    43 1   
    16     6    14 1   
    17     6    29 1   
    18     6    30 1   
    19     6    31 1   
    20     7     8 2   
    21     8     9 1   
    22     8    11 1   
    23     9    10 1   
    24    10    32 1   
    25    10    33 1   
    26    10    34 1   
    27    11    12 2   
    28    11    18 1   
    29    12    13 1   
    30    12    24 1   
    31    13    14 1   
    32    13    35 1   
    33    14    15 2   
    34    15    18 1   
    35    18    36 1   
    36    19    37 1   
    37    20    21 ar  
    38    20    38 1   
    39    21    39 1   
    40    22    43 1   
    41    23    43 1   
    42    24    40 1   
    43    24    41 1   
    44    24    42 1   
@<TRIPOS>SUBSTRUCTURE
     1 C5U         1 TEMP              0 ****  ****    0 ROOT
