@<TRIPOS>MOLECULE
C5U
   43    44     1     0     0
SMALL
bcc


@<TRIPOS>ATOM
      1 C10          2.5910     0.4300    -0.7270 c          1 C5U       0.661800
      2 C13          3.5070    -1.3860    -1.9190 c3         1 C5U       0.131200
      3 C15          0.0500    -0.8640     0.7790 ca         1 C5U       0.004700
      4 C17         -0.1250    -1.3100     3.1700 ca         1 C5U      -0.098000
      5 C20          0.3150    -2.2250     0.6130 ca         1 C5U      -0.135200
      6 C24          2.5590     3.1000     0.6320 c3         1 C5U      -0.064900
      7 O01         -2.4910    -0.6820    -0.8970 o          1 C5U      -0.540000
      8 C02         -2.4060     0.4940    -0.6210 c          1 C5U       0.661800
      9 O03         -3.4420     1.3240    -0.7090 os         1 C5U      -0.427400
     10 C04         -4.6950     0.7690    -1.0970 c3         1 C5U       0.131200
     11 C05         -1.1530     1.1130    -0.1830 ce         1 C5U      -0.262900
     12 C06         -1.0570     2.3460     0.3710 c2         1 C5U       0.193300
     13 N07          0.1810     2.8180     0.7190 nu         1 C5U      -0.634800
     14 C08          1.3640     2.2400     0.3560 c2         1 C5U       0.193300
     15 C09          1.3500     1.0100    -0.2170 ce         1 C5U      -0.262900
     16 O11          3.6980     0.9200    -0.6590 o          1 C5U      -0.540000
     17 O12          2.3820    -0.7470    -1.3220 os         1 C5U      -0.427400
     18 C14          0.0600     0.2100    -0.3090 c6         1 C5U       0.120000
     19 C16         -0.1530    -0.4410     2.0930 ca         1 C5U      -0.138000
     20 C18          0.1320    -2.6580     2.9670 ca         1 C5U      -0.136000
     21 C19          0.3680    -3.1120     1.6840 ca         1 C5U      -0.082000
     22 O22         -0.1410    -2.5110    -1.6250 o          1 C5U      -0.205500
     23 O23          1.4190    -3.6740    -0.7550 o          1 C5U      -0.205500
     24 C25         -2.1630     3.3100     0.6810 c3         1 C5U      -0.064900
     25 H1           3.1260    -2.2880    -2.3890 h1         1 C5U       0.049367
     26 H2           3.9680    -0.7540    -2.6770 h1         1 C5U       0.049367
     27 H3           4.2550    -1.6560    -1.1740 h1         1 C5U       0.049367
     28 H4          -0.3030    -0.9320     4.1680 ha         1 C5U       0.135000
     29 H5           2.2620     3.9980     1.1720 hc         1 C5U       0.063700
     30 H6           3.3020     2.5770     1.2280 hc         1 C5U       0.063700
     31 H7           3.0420     3.4110    -0.2930 hc         1 C5U       0.063700
     32 H8          -5.4030     1.5920    -1.0760 h1         1 C5U       0.049367
     33 H9          -4.6540     0.3540    -2.1040 h1         1 C5U       0.049367
     34 H10         -5.0250    -0.0070    -0.4060 h1         1 C5U       0.049367
     35 H13          0.2240     3.7290     1.1460 hn         1 C5U       0.444800
     36 H17          0.0110    -0.2650    -1.2840 hc         1 C5U       0.111700
     37 H18         -0.3440     0.6070     2.2820 ha         1 C5U       0.136000
     38 H19          0.1540    -3.3510     3.7960 ha         1 C5U       0.142000
     39 H20          0.5700    -4.1610     1.5160 ha         1 C5U       0.161000
     40 H21         -2.9650     2.8380     1.2420 hc         1 C5U       0.063700
     41 H22         -1.7880     4.1410     1.2770 hc         1 C5U       0.063700
     42 H23         -2.5930     3.7250    -0.2290 hc         1 C5U       0.063700
     43 N21          0.5500    -2.8330    -0.6920 no         1 C5U       0.317200
@<TRIPOS>BOND
     1     1    15 1   
     2     1    16 2   
     3     1    17 1   
     4     2    17 1   
     5     2    25 1   
     6     2    26 1   
     7     2    27 1   
     8     3     5 ar  
     9     3    18 1   
    10     3    19 ar  
    11     4    19 ar  
    12     4    20 ar  
    13     4    28 1   
    14     5    21 ar  
    15     5    43 1   
    16     6    14 1   
    17     6    29 1   
    18     6    30 1   
    19     6    31 1   
    20     7     8 2   
    21     8     9 1   
    22     8    11 1   
    23     9    10 1   
    24    10    32 1   
    25    10    33 1   
    26    10    34 1   
    27    11    12 2   
    28    11    18 1   
    29    12    13 1   
    30    12    24 1   
    31    13    14 1   
    32    13    35 1   
    33    14    15 2   
    34    15    18 1   
    35    18    36 1   
    36    19    37 1   
    37    20    21 ar  
    38    20    38 1   
    39    21    39 1   
    40    22    43 1   
    41    23    43 1   
    42    24    40 1   
    43    24    41 1   
    44    24    42 1   
@<TRIPOS>SUBSTRUCTURE
     1 C5U         1 TEMP              0 ****  ****    0 ROOT
