@<TRIPOS>MOLECULE
C5V
   49    53     1     0     0
SMALL
bcc


@<TRIPOS>ATOM
      1 C1           3.2900     1.3510     1.6290 c3         1 C5V       0.164300
      2 C2           1.8930     0.9920     1.1990 ca         1 C5V      -0.147300
      3 C3           1.1540     0.0390     1.8850 ca         1 C5V      -0.078000
      4 C11          5.6970    -0.8410    -0.1260 ca         1 C5V      -0.145600
      5 C12          5.8310     0.3240    -0.8620 ca         1 C5V      -0.145600
      6 C13          4.9240     1.3410    -0.2780 c          1 C5V       0.730600
      7 C14          6.4160    -1.9770    -0.4310 ca         1 C5V      -0.064000
      8 C15          7.2870    -1.9050    -1.5170 ca         1 C5V      -0.117500
      9 C16          7.4210    -0.7340    -2.2570 ca         1 C5V      -0.117500
     10 C17          6.6890     0.4080    -1.9380 ca         1 C5V      -0.064000
     11 C21         -4.1760    -0.8580    -0.4300 cx         1 C5V      -0.238700
     12 C23         -5.4940    -1.0130     0.3050 cx         1 C5V      -0.043400
     13 C24         -4.9470    -2.1410    -0.4990 cx         1 C5V      -0.082400
     14 C25         -6.6780    -0.2360    -0.1280 ca         1 C5V      -0.172600
     15 C26         -7.0100    -0.0490    -1.4690 ca         1 C5V       0.401200
     16 C28         -8.8490     1.1960    -0.9690 ca         1 C5V       0.401200
     17 C29         -8.6190     1.0750     0.3920 ca         1 C5V      -0.243300
     18 C30         -7.5170     0.3490     0.8150 ca         1 C5V      -0.081000
     19 C4          -0.1310    -0.3150     1.4940 ca         1 C5V      -0.174500
     20 C5          -0.7030     0.2920     0.3770 ca         1 C5V       0.082600
     21 C6           0.0350     1.2540    -0.3190 ca         1 C5V      -0.174500
     22 C7           1.3100     1.5980     0.0880 ca         1 C5V      -0.078000
     23 N8          -1.9810     0.0090    -0.1130 ns         1 C5V      -0.466100
     24 N9           4.3010     0.7250     0.7960 n          1 C5V      -0.525400
     25 C10          4.7050    -0.5930     0.9460 c          1 C5V       0.730600
     26 O18          4.3060    -1.3500     1.7940 o          1 C5V      -0.564000
     27 O22         -2.7990    -1.4840     1.4010 o          1 C5V      -0.585100
     28 N27         -8.0600     0.6450    -1.8850 nb         1 C5V      -0.664000
     29 H1           3.4490     2.4280     1.5790 h1         1 C5V       0.070200
     30 H2           3.4640     1.0480     2.6610 h1         1 C5V       0.070200
     31 H3           1.5820    -0.4480     2.7530 ha         1 C5V       0.141500
     32 H4           6.3120    -2.8880     0.1430 ha         1 C5V       0.156500
     33 H5           7.8710    -2.7740    -1.7910 ha         1 C5V       0.140000
     34 H6           8.1050    -0.7120    -3.0940 ha         1 C5V       0.140000
     35 H7           6.7930     1.3180    -2.5130 ha         1 C5V       0.156500
     36 H8          -4.1960    -0.2290    -1.3130 hc         1 C5V       0.089700
     37 H9          -5.4020    -1.1190     1.3800 hc         1 C5V       0.104700
     38 H10         -5.4160    -2.3820    -1.4450 hc         1 C5V       0.087700
     39 H11         -4.5520    -2.9920     0.0400 hc         1 C5V       0.087700
     40 H12         -6.3940    -0.4830    -2.2510 h4         1 C5V       0.014100
     41 H13         -9.7010     1.7580    -1.3350 h4         1 C5V       0.021100
     42 H14         -9.2890     1.5380     1.1030 ha         1 C5V       0.144000
     43 H15         -7.3090     0.2360     1.8720 ha         1 C5V       0.141000
     44 H16         -0.6680    -1.0580     2.0600 ha         1 C5V       0.148000
     45 H17         -0.3970     1.7440    -1.1840 ha         1 C5V       0.148000
     46 H18          1.8530     2.3530    -0.4670 ha         1 C5V       0.141500
     47 H19         -2.2240     0.5000    -0.9600 hn         1 C5V       0.318500
     48 O19          4.7400     2.4770    -0.6380 o          1 C5V      -0.564000
     49 C20         -2.9320    -0.8220     0.3850 c          1 C5V       0.707100
@<TRIPOS>BOND
     1     1     2 1   
     2     1    24 1   
     3     1    29 1   
     4     1    30 1   
     5     2     3 ar  
     6     2    22 ar  
     7     3    19 ar  
     8     3    31 1   
     9     4     5 ar  
    10     4     7 ar  
    11     4    25 1   
    12     5     6 1   
    13     5    10 ar  
    14     6    24 1   
    15     6    48 2   
    16     7     8 ar  
    17     7    32 1   
    18     8     9 ar  
    19     8    33 1   
    20     9    10 ar  
    21     9    34 1   
    22    10    35 1   
    23    11    12 1   
    24    11    13 1   
    25    11    36 1   
    26    11    49 1   
    27    12    13 1   
    28    12    14 1   
    29    12    37 1   
    30    13    38 1   
    31    13    39 1   
    32    14    15 ar  
    33    14    18 ar  
    34    15    28 ar  
    35    15    40 1   
    36    16    17 ar  
    37    16    28 ar  
    38    16    41 1   
    39    17    18 ar  
    40    17    42 1   
    41    18    43 1   
    42    19    20 ar  
    43    19    44 1   
    44    20    21 ar  
    45    20    23 1   
    46    21    22 ar  
    47    21    45 1   
    48    22    46 1   
    49    23    47 1   
    50    23    49 1   
    51    24    25 1   
    52    25    26 2   
    53    27    49 2   
@<TRIPOS>SUBSTRUCTURE
     1 C5V         1 TEMP              0 ****  ****    0 ROOT
