@<TRIPOS>MOLECULE
C5V
   49    53     1     0     0
SMALL
No Charge or Current Charge


@<TRIPOS>ATOM
      1 C1           3.0880     0.8370     1.9670 c3         1 C5V       0.164300
      2 C2           1.6850     0.4190     1.5500 ca         1 C5V      -0.147300
      3 C3           1.2100    -0.8710     1.8490 ca         1 C5V      -0.060000
      4 C11          5.6690    -0.5530    -0.3160 ca         1 C5V      -0.145600
      5 C12          5.4650     0.6990    -0.8860 ca         1 C5V      -0.145600
      6 C13          4.4380     1.4210    -0.0790 c          1 C5V       0.588100
      7 C14          6.5840    -1.4650    -0.8600 ca         1 C5V      -0.046000
      8 C15          7.2990    -1.0730    -2.0120 ca         1 C5V      -0.099500
      9 C16          7.0910     0.2020    -2.5930 ca         1 C5V      -0.099500
     10 C17          6.1640     1.1070    -2.0300 ca         1 C5V      -0.046000
     11 C21         -4.3760    -1.7050    -0.1720 cx         1 C5V      -0.238700
     12 C23         -5.3460    -0.7160     0.4490 cx         1 C5V      -0.043400
     13 C24         -5.5810    -2.2030     0.6000 cx         1 C5V      -0.082400
     14 C25         -6.2300     0.1630    -0.4020 ca         1 C5V      -0.107300
     15 C26         -6.8450    -0.3110    -1.5840 ca         1 C5V       0.335900
     16 C28         -7.8540     1.7340    -1.9970 ca         1 C5V       0.335900
     17 C29         -7.2850     2.2940    -0.8420 ca         1 C5V      -0.160000
     18 C30         -6.4600     1.5010    -0.0280 ca         1 C5V      -0.063000
     19 C4          -0.0820    -1.2630     1.4570 ca         1 C5V      -0.156500
     20 C5          -0.9190    -0.3660     0.7580 ca         1 C5V      -0.010000
     21 C6          -0.4370     0.9220     0.4620 ca         1 C5V      -0.156500
     22 C7           0.8550     1.3140     0.8530 ca         1 C5V      -0.060000
     23 N8          -2.2370    -0.6900     0.3310 ns         1 C5V      -0.140000
     24 N9           4.0940     0.5340     0.9390 n          1 C5V      -0.391400
     25 C10          4.7800    -0.6770     0.8760 c          1 C5V       0.588100
     26 O18          4.6760    -1.6290     1.6350 o          1 C5V      -0.488500
     27 O22         -2.6310    -2.8870     0.9630 o          1 C5V      -0.585100
     28 N27         -7.6420     0.4520    -2.3710 nb         1 C5V      -0.664000
     29 H1           3.1020     1.9150     2.1780 h1         1 C5V       0.070200
     30 H2           3.3610     0.3270     2.9010 h1         1 C5V       0.070200
     31 H3           1.8450    -1.5760     2.3840 ha         1 C5V       0.123500
     32 H4           6.7380    -2.4430    -0.4080 ha         1 C5V       0.138500
     33 H5           8.0170    -1.7580    -2.4580 ha         1 C5V       0.122000
     34 H6           7.6500     0.4880    -3.4810 ha         1 C5V       0.122000
     35 H7           5.9990     2.0880    -2.4710 ha         1 C5V       0.138500
     36 H8          -4.4020    -1.8260    -1.2510 hc         1 C5V       0.089700
     37 H9          -5.0120    -0.2050     1.3520 hc         1 C5V       0.104700
     38 H10         -6.3940    -2.6580     0.0390 hc         1 C5V       0.087700
     39 H11         -5.4190    -2.6390     1.5840 hc         1 C5V       0.087700
     40 H12         -6.6980    -1.3360    -1.9200 h4         1 C5V       0.014100
     41 H13         -8.4980     2.3300    -2.6440 h4         1 C5V       0.021100
     42 H14         -7.4860     3.3310    -0.5860 ha         1 C5V       0.126000
     43 H15         -6.0110     1.9190     0.8700 ha         1 C5V       0.123000
     44 H16         -0.4100    -2.2660     1.7080 ha         1 C5V       0.130000
     45 H17         -1.0660     1.6280    -0.0760 ha         1 C5V       0.130000
     46 H18          1.2090     2.3140     0.6110 ha         1 C5V       0.123500
     47 H19         -2.7100     0.0690    -0.1420 hn         1 C5V       0.152000
     48 O19          3.9940     2.5450    -0.2640 o          1 C5V      -0.488500
     49 C20         -3.0010    -1.8420     0.4400 c          1 C5V       0.640100
@<TRIPOS>BOND
     1     1     2 1   
     2     1    24 1   
     3     1    29 1   
     4     1    30 1   
     5     2     3 ar  
     6     2    22 ar  
     7     3    19 ar  
     8     3    31 1   
     9     4     5 ar  
    10     4     7 ar  
    11     4    25 1   
    12     5     6 1   
    13     5    10 ar  
    14     6    24 1   
    15     6    48 2   
    16     7     8 ar  
    17     7    32 1   
    18     8     9 ar  
    19     8    33 1   
    20     9    10 ar  
    21     9    34 1   
    22    10    35 1   
    23    11    12 1   
    24    11    13 1   
    25    11    36 1   
    26    11    49 1   
    27    12    13 1   
    28    12    14 1   
    29    12    37 1   
    30    13    38 1   
    31    13    39 1   
    32    14    15 ar  
    33    14    18 ar  
    34    15    28 ar  
    35    15    40 1   
    36    16    17 ar  
    37    16    28 ar  
    38    16    41 1   
    39    17    18 ar  
    40    17    42 1   
    41    18    43 1   
    42    19    20 ar  
    43    19    44 1   
    44    20    21 ar  
    45    20    23 1   
    46    21    22 ar  
    47    21    45 1   
    48    22    46 1   
    49    23    47 1   
    50    23    49 1   
    51    24    25 1   
    52    25    26 2   
    53    27    49 2   
@<TRIPOS>SUBSTRUCTURE
     1 C5V         1 TEMP              0 ****  ****    0 ROOT
