@<TRIPOS>MOLECULE
C5W
   62    66     1     0     0
SMALL
abcg2


@<TRIPOS>ATOM
      1 C20         -0.8260     1.1680    -0.5760 ca         1 C5W      -0.059000
      2 C21         -0.1990     2.3810    -0.7160 ca         1 C5W      -0.115500
      3 C22          1.1670     2.4890    -1.1880 cc         1 C5W       0.528500
      4 C24          3.0800     3.1240    -1.8290 cd         1 C5W       0.225900
      5 C28          5.1580     0.5150    -0.1100 c6         1 C5W       0.165800
      6 C29          5.3780    -0.4130     1.0690 c6         1 C5W       0.164800
      7 N30          6.0410    -1.6410     0.6610 n3         1 C5W      -0.727600
      8 O10         -6.0060    -3.1150     2.1070 o          1 C5W      -0.707500
      9 C35          6.8220    -3.8860     1.3830 c3         1 C5W      -0.090100
     10 C25          3.0790     1.7730    -1.8730 cc         1 C5W       0.089300
     11 C06         -2.7680    -0.2960     0.0010 cp         1 C5W      -0.173000
     12 C01         -3.8780    -4.9840    -0.8040 c3         1 C5W       0.160900
     13 C19         -2.1670     1.0460    -0.1070 cp         1 C5W       0.005000
     14 C03         -3.8470    -2.8130     0.1220 ca         1 C5W       0.598300
     15 C05         -2.4950    -1.2940    -0.9200 ca         1 C5W       0.367900
     16 C41         -2.2640     3.4260     0.1100 ca         1 C5W      -0.067000
     17 C07         -3.6510    -0.6370     1.0280 ca         1 C5W      -0.034000
     18 C34          7.4280    -1.8660     2.6820 c3         1 C5W      -0.090100
     19 C33          6.3470    -2.5000     1.8090 c3         1 C5W       0.187500
     20 C37         -0.9310     3.5460    -0.3690 ca         1 C5W      -0.125000
     21 N39         -1.8150     5.4700     0.0890 na         1 C5W       0.004500
     22 C38         -0.6880     4.9150    -0.3610 cc         1 C5W      -0.189100
     23 C31          5.2400    -2.2850    -0.3660 c6         1 C5W       0.164800
     24 O36          1.8500     1.3700    -1.4610 os         1 C5W      -0.231000
     25 C32          5.0310    -1.3590    -1.5510 c6         1 C5W       0.165800
     26 N27          4.3690    -0.1410    -1.1330 n3         1 C5W      -0.710600
     27 C42         -2.8840     2.1660     0.2360 ca         1 C5W      -0.061000
     28 N40         -2.7890     4.6240     0.3840 nc         1 C5W      -0.291400
     29 N23          1.8530     3.5660    -1.3920 nd         1 C5W      -0.702000
     30 N04         -3.0120    -2.5140    -0.8540 nb         1 C5W      -0.806000
     31 C08         -4.2320    -1.8880     1.1160 ca         1 C5W      -0.188600
     32 H1          -0.2870     0.2590    -0.8070 ha         1 C5W       0.128000
     33 H2           3.8810     3.8000    -2.0810 h4         1 C5W       0.036100
     34 H3           3.6660     0.1310    -3.0640 h1         1 C5W       0.047200
     35 H4           4.9620     1.2460    -2.6470 h1         1 C5W       0.047200
     36 H5           4.6370     1.4090     0.2390 h1         1 C5W       0.036450
     37 H6           6.1350     0.8420    -0.5050 h1         1 C5W       0.036450
     38 H7           5.9860     0.1170     1.8010 h1         1 C5W       0.041700
     39 H8           4.4040    -0.6220     1.5450 h1         1 C5W       0.041700
     40 H10          7.1780    -4.4330     2.2570 hc         1 C5W       0.035367
     41 H11          6.0370    -4.4870     0.9280 hc         1 C5W       0.035367
     42 H12          7.6520    -3.8130     0.6760 hc         1 C5W       0.035367
     43 H13         -4.3650    -5.9250    -0.5580 h1         1 C5W       0.029033
     44 H14         -4.1700    -4.6820    -1.8110 h1         1 C5W       0.029033
     45 H15         -2.7960    -5.1240    -0.7840 h1         1 C5W       0.029033
     46 H16         -1.8390    -1.1050    -1.7640 h4         1 C5W      -0.007900
     47 H17         -3.8870     0.0890     1.7960 ha         1 C5W       0.142000
     48 H18          7.6470    -2.5120     3.5330 hc         1 C5W       0.035367
     49 H19          8.3490    -1.7370     2.1110 hc         1 C5W       0.035367
     50 H20          7.1460    -0.8950     3.0880 hc         1 C5W       0.035367
     51 H21          5.4410    -2.6350     2.4280 h1         1 C5W       0.026700
     52 H22         -1.9730     6.4590     0.2120 hn         1 C5W       0.361000
     53 H23          0.1720     5.5000    -0.6350 h4         1 C5W       0.238000
     54 H24          5.7490    -3.1760    -0.7340 h1         1 C5W       0.041700
     55 H25          4.2570    -2.6060     0.0190 h1         1 C5W       0.041700
     56 H26          6.0070    -1.1560    -2.0230 h1         1 C5W       0.036450
     57 H27          4.4100    -1.8700    -2.2910 h1         1 C5W       0.036450
     58 H30         -3.9100     2.0970     0.5760 ha         1 C5W       0.144000
     59 O1          -5.1590    -1.3790     3.2140 o          1 C5W      -0.707500
     60 C26          4.0710     0.7360    -2.2470 c3         1 C5W       0.153500
     61 C09         -5.2200    -2.1640     2.2480 c          1 C5W       0.724600
     62 O02         -4.3160    -4.0580     0.1780 os         1 C5W      -0.405300
@<TRIPOS>BOND
     1     1     2 ar  
     2     1    13 ar  
     3     1    32 1   
     4     2     3 1   
     5     2    20 ar  
     6     3    24 1   
     7     3    29 2   
     8     4    10 2   
     9     4    29 1   
    10     4    33 1   
    11     5     6 1   
    12     5    26 1   
    13     5    36 1   
    14     5    37 1   
    15     6     7 1   
    16     6    38 1   
    17     6    39 1   
    18     7    19 1   
    19     7    23 1   
    20     8    61 1   
    21     9    19 1   
    22     9    40 1   
    23     9    41 1   
    24     9    42 1   
    25    10    24 1   
    26    10    60 1   
    27    11    13 1   
    28    11    15 ar  
    29    11    17 ar  
    30    12    43 1   
    31    12    44 1   
    32    12    45 1   
    33    12    62 1   
    34    13    27 ar  
    35    14    30 ar  
    36    14    31 ar  
    37    14    62 1   
    38    15    30 ar  
    39    15    46 1   
    40    16    20 ar  
    41    16    27 ar  
    42    16    28 2   
    43    17    31 ar  
    44    17    47 1   
    45    18    19 1   
    46    18    48 1   
    47    18    49 1   
    48    18    50 1   
    49    19    51 1   
    50    20    22 2   
    51    21    22 1   
    52    21    28 1   
    53    21    52 1   
    54    22    53 1   
    55    23    25 1   
    56    23    54 1   
    57    23    55 1   
    58    25    26 1   
    59    25    56 1   
    60    25    57 1   
    61    26    60 1   
    62    27    58 1   
    63    31    61 1   
    64    34    60 1   
    65    35    60 1   
    66    59    61 1   
@<TRIPOS>SUBSTRUCTURE
     1 C5W         1 TEMP              0 ****  ****    0 ROOT
