@<TRIPOS>MOLECULE
C5W
   62    66     1     0     0
SMALL
No Charge or Current Charge


@<TRIPOS>ATOM
      1 C20         -1.0260     1.1380    -0.5620 ca         1 C5W      -0.059000
      2 C21         -0.3320     2.3700    -0.6770 ca         1 C5W      -0.115500
      3 C22          1.0810     2.3990    -1.1050 cc         1 C5W       0.528500
      4 C24          3.0720     2.9380    -1.6480 cd         1 C5W       0.225900
      5 C28          5.1770     0.4330    -0.0450 c6         1 C5W       0.165800
      6 C29          5.6650    -0.4850     1.1210 c6         1 C5W       0.164800
      7 N30          6.5130    -1.6370     0.6540 n3         1 C5W      -0.727600
      8 O10         -6.9080    -2.1680     1.6380 o          1 C5W      -0.707500
      9 C35          7.8860    -3.6890     1.2680 c3         1 C5W      -0.090100
     10 C25          2.9440     1.5810    -1.7750 cc         1 C5W       0.089300
     11 C06         -3.0940    -0.2440    -0.0370 cp         1 C5W      -0.173000
     12 C01         -4.6310    -5.0260    -0.7460 c3         1 C5W       0.160900
     13 C19         -2.3870     1.0720    -0.1450 cp         1 C5W       0.005000
     14 C03         -4.3530    -2.7270     0.0820 ca         1 C5W       0.598300
     15 C05         -2.8060    -1.3150    -0.9180 ca         1 C5W       0.367900
     16 C41         -2.3780     3.5050     0.0540 ca         1 C5W      -0.067000
     17 C07         -4.0820    -0.4790     0.9480 ca         1 C5W      -0.034000
     18 C34          7.7770    -1.7360     2.8600 c3         1 C5W      -0.090100
     19 C33          7.0020    -2.5150     1.7650 c3         1 C5W       0.187500
     20 C37         -1.0650     3.5310    -0.3510 ca         1 C5W      -0.125000
     21 N39         -1.8280     5.6130     0.0550 na         1 C5W       0.004500
     22 C38         -0.7000     4.9080    -0.3510 cc         1 C5W      -0.189100
     23 C31          5.7700    -2.3790    -0.4220 c6         1 C5W       0.164800
     24 O36          1.6790     1.2170    -1.4380 os         1 C5W      -0.231000
     25 C32          5.2830    -1.4540    -1.5830 c6         1 C5W       0.165800
     26 N27          4.4370    -0.3250    -1.0980 n3         1 C5W      -0.710600
     27 C42         -3.0580     2.2850     0.1630 ca         1 C5W      -0.061000
     28 N40         -2.9100     4.7680     0.3200 nc         1 C5W      -0.291400
     29 N23          1.8700     3.4620    -1.2180 nd         1 C5W      -0.702000
     30 N04         -3.4080    -2.5230    -0.8660 nb         1 C5W      -0.806000
     31 C08         -4.7170    -1.7320     0.9970 ca         1 C5W      -0.188600
     32 H1          -0.5050     0.2110    -0.7840 ha         1 C5W       0.128000
     33 H2           3.9420     3.5540    -1.8370 h4         1 C5W       0.036100
     34 H3           3.4480    -0.0960    -2.9630 h1         1 C5W       0.047200
     35 H4           4.7790     1.0320    -2.7020 h1         1 C5W       0.047200
     36 H5           4.5380     1.2200     0.3830 h1         1 C5W       0.036450
     37 H6           6.0520     0.9340    -0.4850 h1         1 C5W       0.036450
     38 H7           6.2210     0.1540     1.8200 h1         1 C5W       0.041700
     39 H8           4.7830    -0.8620     1.6610 h1         1 C5W       0.041700
     40 H10          8.3040    -4.2470     2.1140 hc         1 C5W       0.035367
     41 H11          7.3070    -4.4050     0.6740 hc         1 C5W       0.035367
     42 H12          8.7190    -3.3180     0.6590 hc         1 C5W       0.035367
     43 H13         -5.2190    -5.9220    -0.5100 h1         1 C5W       0.029033
     44 H14         -4.8560    -4.7340    -1.7790 h1         1 C5W       0.029033
     45 H15         -3.5670    -5.2910    -0.6790 h1         1 C5W       0.029033
     46 H16         -2.0650    -1.1980    -1.7070 h4         1 C5W      -0.007900
     47 H17         -4.3480     0.2910     1.6700 ha         1 C5W       0.142000
     48 H18          8.2030    -2.4240     3.6000 hc         1 C5W       0.035367
     49 H19          8.5980    -1.1580     2.4190 hc         1 C5W       0.035367
     50 H20          7.1200    -1.0510     3.4080 hc         1 C5W       0.035367
     51 H21          6.1310    -2.9670     2.2610 h1         1 C5W       0.026700
     52 H22         -1.9120     6.6210     0.1620 hn         1 C5W       0.361000
     53 H23          0.2230     5.4250    -0.5950 h4         1 C5W       0.238000
     54 H24          6.4050    -3.1530    -0.8750 h1         1 C5W       0.041700
     55 H25          4.8950    -2.8900     0.0070 h1         1 C5W       0.041700
     56 H26          6.1650    -1.0640    -2.1130 h1         1 C5W       0.036450
     57 H27          4.7210    -2.0660    -2.3040 h1         1 C5W       0.036450
     58 H30         -4.1000     2.2800     0.4700 ha         1 C5W       0.144000
     59 O1          -5.4280    -1.9580     3.1910 o          1 C5W      -0.707500
     60 C26          3.9380     0.5300    -2.2050 c3         1 C5W       0.153500
     61 C09         -5.7560    -2.0160     2.0160 c          1 C5W       0.724600
     62 O02         -4.9540    -3.9650     0.1700 os         1 C5W      -0.405300
@<TRIPOS>BOND
     1     1     2 ar  
     2     1    13 ar  
     3     1    32 1   
     4     2     3 1   
     5     2    20 ar  
     6     3    24 1   
     7     3    29 2   
     8     4    10 2   
     9     4    29 1   
    10     4    33 1   
    11     5     6 1   
    12     5    26 1   
    13     5    36 1   
    14     5    37 1   
    15     6     7 1   
    16     6    38 1   
    17     6    39 1   
    18     7    19 1   
    19     7    23 1   
    20     8    61 1   
    21     9    19 1   
    22     9    40 1   
    23     9    41 1   
    24     9    42 1   
    25    10    24 1   
    26    10    60 1   
    27    11    13 1   
    28    11    15 ar  
    29    11    17 ar  
    30    12    43 1   
    31    12    44 1   
    32    12    45 1   
    33    12    62 1   
    34    13    27 ar  
    35    14    30 ar  
    36    14    31 ar  
    37    14    62 1   
    38    15    30 ar  
    39    15    46 1   
    40    16    20 ar  
    41    16    27 ar  
    42    16    28 2   
    43    17    31 ar  
    44    17    47 1   
    45    18    19 1   
    46    18    48 1   
    47    18    49 1   
    48    18    50 1   
    49    19    51 1   
    50    20    22 2   
    51    21    22 1   
    52    21    28 1   
    53    21    52 1   
    54    22    53 1   
    55    23    25 1   
    56    23    54 1   
    57    23    55 1   
    58    25    26 1   
    59    25    56 1   
    60    25    57 1   
    61    26    60 1   
    62    27    58 1   
    63    31    61 1   
    64    34    60 1   
    65    35    60 1   
    66    59    61 1   
@<TRIPOS>SUBSTRUCTURE
     1 C5W         1 TEMP              0 ****  ****    0 ROOT
