@<TRIPOS>MOLECULE
C5X
   34    35     1     0     0
SMALL
bcc


@<TRIPOS>ATOM
      1 C1          82.3870    22.7990    10.4870 c6         1 C5X       0.348900
      2 C2          81.9730    23.9320    11.4210 c6         1 C5X       0.133100
      3 C3          83.0880    24.1810    12.4320 c6         1 C5X       0.109100
      4 C4          83.4680    22.8910    13.1440 c6         1 C5X       0.076100
      5 C5          83.7740    21.8190    12.1000 c6         1 C5X       0.112400
      6 O1          81.3450    22.5220     9.6350 os         1 C5X      -0.378600
      7 O2          81.7200    25.0720    10.6420 oh         1 C5X      -0.578800
      8 O3          82.6320    25.1730    13.3210 oh         1 C5X      -0.600800
      9 O4          84.5920    23.1640    13.9480 oh         1 C5X      -0.599800
     10 O5          82.6740    21.6440    11.2370 os         1 C5X      -0.433600
     11 C6          81.6810    21.7280     8.5070 c3         1 C5X       0.142400
     12 C7          80.4760    21.5870     7.6010 c3         1 C5X      -0.070400
     13 C8          79.3320    20.7320     8.1470 c3         1 C5X      -0.059400
     14 C9          78.5650    21.3370     9.2900 cx         1 C5X       0.072100
     15 C10         77.1080    21.2760     9.3420 cx         1 C5X       0.041400
     16 O           77.7740    22.4790     8.9900 op         1 C5X      -0.389600
     17 H1          83.2900    23.1050     9.9220 h2         1 C5X       0.030700
     18 H2          81.0710    23.6080    11.9670 h1         1 C5X       0.066700
     19 H3          83.9740    24.5310    11.8770 h1         1 C5X       0.050700
     20 H4          82.6140    22.5600    13.7510 h1         1 C5X       0.059700
     21 H51         84.6790    22.1020    11.5410 h1         1 C5X       0.054200
     22 H52         83.9670    20.8570    12.5770 h1         1 C5X       0.054200
     23 HO2         81.5680    25.8120    11.2390 ho         1 C5X       0.423000
     24 HO3         83.3760    25.4700    13.8550 ho         1 C5X       0.424000
     25 HO4         84.7120    22.4410    14.5700 ho         1 C5X       0.413000
     26 H1'1        82.5030    22.2040     7.9550 h1         1 C5X       0.028700
     27 H1'2        82.0290    20.7360     8.8140 h1         1 C5X       0.028700
     28 H2'1        80.1080    22.5760     7.3160 hc         1 C5X       0.056200
     29 H2'2        80.8330    21.1210     6.6790 hc         1 C5X       0.056200
     30 H3'1        78.6380    20.5220     7.3280 hc         1 C5X       0.045200
     31 H3'2        79.7240    19.7630     8.4700 hc         1 C5X       0.045200
     32 H6          79.0940    21.4030    10.2380 h1         1 C5X       0.097700
     33 H5'1        76.5640    20.7820     8.5400 h1         1 C5X       0.070200
     34 H5'2        76.5970    21.2780    10.3020 h1         1 C5X       0.070200
@<TRIPOS>BOND
     1     1     2 1   
     2     1     6 1   
     3     1    10 1   
     4     1    17 1   
     5     2     3 1   
     6     2     7 1   
     7     2    18 1   
     8     3     4 1   
     9     3     8 1   
    10     3    19 1   
    11     4     5 1   
    12     4     9 1   
    13     4    20 1   
    14     5    10 1   
    15     5    21 1   
    16     5    22 1   
    17     6    11 1   
    18     7    23 1   
    19     8    24 1   
    20     9    25 1   
    21    11    12 1   
    22    11    26 1   
    23    11    27 1   
    24    12    13 1   
    25    12    28 1   
    26    12    29 1   
    27    13    14 1   
    28    13    30 1   
    29    13    31 1   
    30    14    15 1   
    31    14    16 1   
    32    14    32 1   
    33    15    16 1   
    34    15    33 1   
    35    15    34 1   
@<TRIPOS>SUBSTRUCTURE
     1 C5X         1 TEMP              0 ****  ****    0 ROOT
