@<TRIPOS>MOLECULE
C5X
   34    35     1     0     0
SMALL
No Charge or Current Charge


@<TRIPOS>ATOM
      1 C1          82.4270    22.9090    10.4120 c6         1 C5X       0.395300
      2 C2          82.0270    24.0790    11.3790 c6         1 C5X       0.156300
      3 C3          83.1560    24.2610    12.4350 c6         1 C5X       0.132300
      4 C4          83.4270    22.9180    13.1770 c6         1 C5X       0.099300
      5 C5          83.7360    21.8090    12.1280 c6         1 C5X       0.135600
      6 O1          81.3880    22.6540     9.4500 os         1 C5X      -0.425000
      7 O2          81.7870    25.3350    10.7010 oh         1 C5X      -0.701000
      8 O3          82.8150    25.2890    13.3810 oh         1 C5X      -0.663000
      9 O4          84.5100    23.0820    14.1170 oh         1 C5X      -0.722000
     10 O5          82.6500    21.7050    11.1790 os         1 C5X      -0.480000
     11 C6          81.7020    21.7140     8.4120 c3         1 C5X       0.165600
     12 C7          80.4720    21.5630     7.4880 c3         1 C5X      -0.070400
     13 C8          79.2900    20.7580     8.0880 c3         1 C5X      -0.059400
     14 C9          78.4760    21.5050     9.1430 cx         1 C5X       0.095300
     15 C10         77.1130    21.0070     9.5270 cx         1 C5X       0.064600
     16 O           77.2770    22.1760     8.6910 op         1 C5X      -0.436000
     17 H1          83.3500    23.1820     9.8790 h2         1 C5X       0.030700
     18 H2          81.1140    23.7670    11.9080 h1         1 C5X       0.066700
     19 H3          84.0780    24.5420    11.9030 h1         1 C5X       0.050700
     20 H4          82.5090    22.6280    13.7120 h1         1 C5X       0.059700
     21 H51         84.6690    22.0350    11.5900 h1         1 C5X       0.054200
     22 H52         83.8560    20.8390    12.6310 h1         1 C5X       0.054200
     23 HO2         81.8630    26.0180    11.4100 ho         1 C5X       0.522000
     24 HO3         83.4140    25.1310    14.1470 ho         1 C5X       0.463000
     25 HO4         84.5690    22.2520    14.6490 ho         1 C5X       0.512000
     26 H1'1        82.5510    22.0790     7.8190 h1         1 C5X       0.028700
     27 H1'2        81.9730    20.7350     8.8290 h1         1 C5X       0.028700
     28 H2'1        80.1260    22.5520     7.1650 hc         1 C5X       0.056200
     29 H2'2        80.8060    21.0440     6.5810 hc         1 C5X       0.056200
     30 H3'1        78.6270    20.4630     7.2650 hc         1 C5X       0.045200
     31 H3'2        79.6740    19.8240     8.5160 hc         1 C5X       0.045200
     32 H6          79.0510    22.0220     9.9110 h1         1 C5X       0.097700
     33 H5'1        76.7040    20.1290     9.0260 h1         1 C5X       0.070200
     34 H5'2        76.7430    21.2020    10.5340 h1         1 C5X       0.070200
@<TRIPOS>BOND
     1     1     2 1   
     2     1     6 1   
     3     1    10 1   
     4     1    17 1   
     5     2     3 1   
     6     2     7 1   
     7     2    18 1   
     8     3     4 1   
     9     3     8 1   
    10     3    19 1   
    11     4     5 1   
    12     4     9 1   
    13     4    20 1   
    14     5    10 1   
    15     5    21 1   
    16     5    22 1   
    17     6    11 1   
    18     7    23 1   
    19     8    24 1   
    20     9    25 1   
    21    11    12 1   
    22    11    26 1   
    23    11    27 1   
    24    12    13 1   
    25    12    28 1   
    26    12    29 1   
    27    13    14 1   
    28    13    30 1   
    29    13    31 1   
    30    14    15 1   
    31    14    16 1   
    32    14    32 1   
    33    15    16 1   
    34    15    33 1   
    35    15    34 1   
@<TRIPOS>SUBSTRUCTURE
     1 C5X         1 TEMP              0 ****  ****    0 ROOT
