@<TRIPOS>MOLECULE
C5Y
   59    61     1     0     0
SMALL
No Charge or Current Charge


@<TRIPOS>ATOM
      1 C15        -15.4390    -5.4840    13.3300 c3         1 C5Y      -0.157400
      2 C17        -13.9230    -6.9180    11.8460 c3         1 C5Y      -0.073400
      3 C20        -11.6040    -8.5680     9.1060 c3         1 C5Y      -0.075400
      4 C21        -10.9480    -9.9540     8.9580 c3         1 C5Y      -0.088100
      5 C24        -16.8050    -1.2200     8.8940 c5         1 C5Y       0.140300
      6 C26        -15.2740    -1.0420     8.6610 c5         1 C5Y       0.135300
      7 C28        -14.8080    -3.9990     7.6470 cc         1 C5Y       0.443700
      8 C02        -11.5160    -5.2860     7.4210 ca         1 C5Y       0.444900
      9 C03        -12.7680    -4.6880     7.6730 ca         1 C5Y      -0.089600
     10 C04        -12.8710    -3.8250     8.7350 ca         1 C5Y       0.105500
     11 C06        -14.6930    -2.2510     9.4890 c5         1 C5Y       0.278300
     12 C08        -16.7840    -1.7050    10.3710 c5         1 C5Y       0.119300
     13 C09        -18.1260    -2.2760    10.8940 c3         1 C5Y       0.222600
     14 C14        -16.2840    -4.2110    13.4400 c          1 C5Y       0.647100
     15 C16        -14.6710    -5.5740    11.9900 c3         1 C5Y      -0.073400
     16 C18        -13.1140    -7.0460    10.5390 c3         1 C5Y      -0.075400
     17 C19        -12.4340    -8.4260    10.3980 c3         1 C5Y      -0.076400
     18 C31        -10.6640    -4.1720     9.2300 ca         1 C5Y       0.167900
     19 N01        -11.3010    -6.1280     6.3750 nv         1 C5Y      -1.072900
     20 N05        -14.1590    -3.3710     8.7170 na         1 C5Y      -0.304300
     21 N29        -13.9750    -4.8210     6.9790 nd         1 C5Y      -0.574100
     22 N30        -11.8250    -3.5440     9.5370 nb         1 C5Y      -0.229000
     23 N32        -10.4540    -5.0310     8.2030 nb         1 C5Y      -0.314000
     24 O07        -15.7660    -2.7290    10.3340 os         1 C5Y      -0.404000
     25 O10        -18.1320    -2.1630    12.3220 os         1 C5Y      -0.574400
     26 O12        -20.0060    -3.8670    12.6420 o          1 C5Y      -0.785500
     27 O13        -17.5580    -4.4430    13.0600 os         1 C5Y      -0.565500
     28 O22        -15.8400    -3.1470    13.8490 o          1 C5Y      -0.502000
     29 O23        -18.8970    -2.9560    14.6450 o          1 C5Y      -0.785500
     30 O27        -14.8630     0.2360     9.1720 oh         1 C5Y      -0.685000
     31 P11        -18.7240    -3.3630    13.2190 p5         1 C5Y       1.401800
     32 H151       -16.1060    -6.3540    13.3770 hc         1 C5Y       0.057700
     33 H152       -14.7190    -5.5100    14.1560 hc         1 C5Y       0.057700
     34 H172       -14.6520    -7.7370    11.8950 hc         1 C5Y       0.031200
     35 H171       -13.2440    -7.0450    12.6990 hc         1 C5Y       0.031200
     36 H201       -10.8190    -7.8030     9.0950 hc         1 C5Y       0.034700
     37 H202       -12.2490    -8.3840     8.2380 hc         1 C5Y       0.034700
     38 H212       -10.3690   -10.0060     8.0290 hc         1 C5Y       0.027700
     39 H213       -10.2700   -10.1540     9.7970 hc         1 C5Y       0.027700
     40 H211       -11.7100   -10.7430     8.9320 hc         1 C5Y       0.027700
     41 H261       -15.0230    -1.1250     7.5940 h1         1 C5Y       0.069700
     42 H281       -15.8460    -3.8040     7.4000 h5         1 C5Y       0.106800
     43 H061       -13.8680    -1.8920    10.1160 h2         1 C5Y       0.093700
     44 H081       -16.4600    -0.8980    11.0420 h1         1 C5Y       0.093700
     45 H091       -18.9560    -1.6920    10.4770 h1         1 C5Y       0.020700
     46 H092       -18.2370    -3.3160    10.5590 h1         1 C5Y       0.020700
     47 H162       -13.9570    -4.7430    11.9200 hc         1 C5Y       0.054200
     48 H161       -15.3760    -5.4620    11.1570 hc         1 C5Y       0.054200
     49 H182       -12.3470    -6.2630    10.5150 hc         1 C5Y       0.038700
     50 H181       -13.7770    -6.8780     9.6820 hc         1 C5Y       0.038700
     51 H192       -13.2030    -9.2080    10.4180 hc         1 C5Y       0.034700
     52 H191       -11.7820    -8.5970    11.2640 hc         1 C5Y       0.034700
     53 H311        -9.8100    -3.9590     9.8700 h5         1 C5Y       0.035100
     54 H012       -10.4840    -6.7300     6.4080 hn         1 C5Y       0.503000
     55 H011       -12.1220    -6.4910     5.8990 hn         1 C5Y       0.503000
     56 H271       -15.6860     0.7820     9.1030 ho         1 C5Y       0.503000
     57 O25        -17.5040     0.0230     8.6930 oh         1 C5Y      -0.689000
     58 H251       -18.4340    -0.1940     8.4410 ho         1 C5Y       0.509000
     59 H241       -17.2080    -2.0010     8.2350 h1         1 C5Y       0.042700
@<TRIPOS>BOND
     1     1    14 1   
     2     1    15 1   
     3     1    32 1   
     4     1    33 1   
     5     2    15 1   
     6     2    16 1   
     7     2    34 1   
     8     2    35 1   
     9     3     4 1   
    10     3    17 1   
    11     3    36 1   
    12     3    37 1   
    13     4    38 1   
    14     4    39 1   
    15     4    40 1   
    16     5     6 1   
    17     5    12 1   
    18     5    57 1   
    19     5    59 1   
    20     6    11 1   
    21     6    30 1   
    22     6    41 1   
    23     7    20 1   
    24     7    21 2   
    25     7    42 1   
    26     8     9 ar  
    27     8    19 1   
    28     8    23 ar  
    29     9    10 ar  
    30     9    21 1   
    31    10    20 1   
    32    10    22 ar  
    33    11    20 1   
    34    11    24 1   
    35    11    43 1   
    36    12    13 1   
    37    12    24 1   
    38    12    44 1   
    39    13    25 1   
    40    13    45 1   
    41    13    46 1   
    42    14    27 1   
    43    14    28 2   
    44    15    47 1   
    45    15    48 1   
    46    16    17 1   
    47    16    49 1   
    48    16    50 1   
    49    17    51 1   
    50    17    52 1   
    51    18    22 ar  
    52    18    23 ar  
    53    18    53 1   
    54    19    54 1   
    55    19    55 1   
    56    25    31 1   
    57    26    31 1   
    58    27    31 1   
    59    29    31 1   
    60    30    56 1   
    61    57    58 1   
@<TRIPOS>SUBSTRUCTURE
     1 C5Y         1 TEMP              0 ****  ****    0 ROOT
