@<TRIPOS>MOLECULE
C5Y
   59    61     1     0     0
SMALL
bcc


@<TRIPOS>ATOM
      1 C15        -15.7880    -6.0390    12.5160 c3         1 C5Y      -0.157400
      2 C17        -14.3180    -7.8910    11.6500 c3         1 C5Y      -0.073400
      3 C20        -11.4360   -10.2280    10.4380 c3         1 C5Y      -0.075400
      4 C21        -11.3870   -11.6620     9.9300 c3         1 C5Y      -0.088100
      5 C24        -17.0770    -1.4370     8.5820 c5         1 C5Y       0.117100
      6 C26        -15.9370    -0.6420     7.9580 c5         1 C5Y       0.112100
      7 C28        -13.9580    -3.0850     9.6740 cc         1 C5Y       0.443700
      8 C02        -11.5050    -3.7960     7.2740 ca         1 C5Y       0.773200
      9 C03        -12.5260    -3.3900     8.1530 ca         1 C5Y      -0.220200
     10 C04        -13.1170    -2.1660     7.8800 ca         1 C5Y       0.433800
     11 C06        -14.8600    -0.7880     9.0450 c5         1 C5Y       0.225800
     12 C08        -16.9270    -1.0910    10.0700 c5         1 C5Y       0.096100
     13 C09        -17.4160    -2.1940    10.9770 c3         1 C5Y       0.199400
     14 C14        -15.9050    -4.6220    13.0120 c          1 C5Y       0.696100
     15 C16        -14.3700    -6.4630    12.1770 c3         1 C5Y      -0.073400
     16 C18        -12.9070    -8.3370    11.2940 c3         1 C5Y      -0.075400
     17 C19        -12.8470    -9.7690    10.7770 c3         1 C5Y      -0.076400
     18 C31        -11.8490    -1.8350     6.1200 ca         1 C5Y       0.693900
     19 N01        -10.8440    -4.9460     7.4190 nv         1 C5Y      -0.962500
     20 N05        -14.0460    -1.9880     8.8630 na         1 C5Y      -0.275000
     21 N29        -13.0680    -3.9500     9.2790 nd         1 C5Y      -0.574100
     22 N30        -12.8170    -1.3450     6.8740 nb         1 C5Y      -0.755000
     23 N32        -11.1920    -2.9830     6.2580 nb         1 C5Y      -0.840000
     24 O07        -15.5280    -0.8740    10.2610 os         1 C5Y      -0.357600
     25 O10        -17.0880    -1.8760    12.3110 os         1 C5Y      -0.551200
     26 O12        -19.2100    -2.8560    13.3820 o          1 C5Y      -0.785500
     27 O13        -17.1760    -4.2790    13.2040 os         1 C5Y      -0.565500
     28 O22        -14.9690    -3.8860    13.1970 o          1 C5Y      -0.551000
     29 O23        -17.1020    -2.2030    14.7970 o          1 C5Y      -0.785500
     30 O27        -16.3420     0.6920     7.8460 oh         1 C5Y      -0.562800
     31 P11        -17.7390    -2.7090    13.5540 p5         1 C5Y       1.401800
     32 H151       -16.4370    -6.1440    11.6400 hc         1 C5Y       0.057700
     33 H152       -16.2170    -6.7020    13.2750 hc         1 C5Y       0.057700
     34 H172       -14.9610    -7.9760    10.7670 hc         1 C5Y       0.031200
     35 H171       -14.7380    -8.5720    12.3980 hc         1 C5Y       0.031200
     36 H201       -10.8030   -10.1320    11.3260 hc         1 C5Y       0.034700
     37 H202       -11.0070    -9.5580     9.6870 hc         1 C5Y       0.034700
     38 H212       -10.3680   -11.9710     9.6950 hc         1 C5Y       0.027700
     39 H213       -11.7800   -12.3580    10.6740 hc         1 C5Y       0.027700
     40 H211       -11.9850   -11.7790     9.0250 hc         1 C5Y       0.027700
     41 H261       -15.6100    -1.0580     7.0000 h1         1 C5Y       0.069700
     42 H281       -14.5640    -3.1930    10.5590 h5         1 C5Y       0.106800
     43 H061       -14.1770     0.0680     9.0470 h2         1 C5Y       0.093700
     44 H081       -17.4630    -0.1610    10.2940 h1         1 C5Y       0.093700
     45 H091       -18.4990    -2.2970    10.8370 h1         1 C5Y       0.020700
     46 H092       -16.9580    -3.1450    10.6780 h1         1 C5Y       0.020700
     47 H162       -13.7330    -6.3790    13.0610 hc         1 C5Y       0.054200
     48 H161       -13.9490    -5.7880    11.4260 hc         1 C5Y       0.054200
     49 H182       -12.2640    -8.2430    12.1760 hc         1 C5Y       0.038700
     50 H181       -12.4910    -7.6600    10.5400 hc         1 C5Y       0.038700
     51 H192       -13.4830    -9.8610     9.8900 hc         1 C5Y       0.034700
     52 H191       -13.2760   -10.4420    11.5280 hc         1 C5Y       0.034700
     53 H311       -11.5430    -1.2230     5.2770 h5         1 C5Y       0.035100
     54 H012       -10.0990    -5.1860     6.7880 hn         1 C5Y       0.447800
     55 H011       -11.0390    -5.5640     8.1870 hn         1 C5Y       0.447800
     56 H271       -15.6390     1.1920     7.4170 ho         1 C5Y       0.404000
     57 O25        -18.3110    -1.1010     8.0250 oh         1 C5Y      -0.566800
     58 H251       -18.9480    -1.7830     8.2580 ho         1 C5Y       0.410000
     59 H241       -16.8530    -2.5040     8.4420 h1         1 C5Y       0.042700
@<TRIPOS>BOND
     1     1    14 1   
     2     1    15 1   
     3     1    32 1   
     4     1    33 1   
     5     2    15 1   
     6     2    16 1   
     7     2    34 1   
     8     2    35 1   
     9     3     4 1   
    10     3    17 1   
    11     3    36 1   
    12     3    37 1   
    13     4    38 1   
    14     4    39 1   
    15     4    40 1   
    16     5     6 1   
    17     5    12 1   
    18     5    57 1   
    19     5    59 1   
    20     6    11 1   
    21     6    30 1   
    22     6    41 1   
    23     7    20 1   
    24     7    21 2   
    25     7    42 1   
    26     8     9 ar  
    27     8    19 1   
    28     8    23 ar  
    29     9    10 ar  
    30     9    21 1   
    31    10    20 1   
    32    10    22 ar  
    33    11    20 1   
    34    11    24 1   
    35    11    43 1   
    36    12    13 1   
    37    12    24 1   
    38    12    44 1   
    39    13    25 1   
    40    13    45 1   
    41    13    46 1   
    42    14    27 1   
    43    14    28 2   
    44    15    47 1   
    45    15    48 1   
    46    16    17 1   
    47    16    49 1   
    48    16    50 1   
    49    17    51 1   
    50    17    52 1   
    51    18    22 ar  
    52    18    23 ar  
    53    18    53 1   
    54    19    54 1   
    55    19    55 1   
    56    25    31 1   
    57    26    31 1   
    58    27    31 1   
    59    29    31 1   
    60    30    56 1   
    61    57    58 1   
@<TRIPOS>SUBSTRUCTURE
     1 C5Y         1 TEMP              0 ****  ****    0 ROOT
