@<TRIPOS>MOLECULE
C5Z
   66    70     1     0     0
SMALL
abcg2


@<TRIPOS>ATOM
      1 C15          4.1360    -2.4130     1.2210 ca         1 C5Z       0.639300
      2 C17          4.2830    -4.3140     2.6120 c3         1 C5Z       0.158900
      3 C21          2.2110     1.2760     0.5080 cp         1 C5Z      -0.026000
      4 C22          0.8050     1.3510     0.7310 ca         1 C5Z      -0.086000
      5 C24          0.0920     2.5090     0.5410 ca         1 C5Z      -0.072500
      6 C01          6.7810    -1.6600    -2.8080 c3         1 C5Z       0.155900
      7 O05          5.8010    -1.3050    -1.8340 os         1 C5Z      -0.450100
      8 O07          6.2140    -3.1840    -0.7120 o          1 C5Z      -0.466000
      9 C08          4.5480    -1.6680     0.0930 ca         1 C5Z      -0.223600
     10 C09          3.9030    -0.4600    -0.1270 ca         1 C5Z       0.016000
     11 C11          2.9000    -0.0090     0.7250 cp         1 C5Z      -0.149000
     12 C12          2.5870    -0.8370     1.7950 ca         1 C5Z       0.424900
     13 N14          3.1860    -1.9940     2.0320 nb         1 C5Z      -0.776000
     14 O16          4.7200    -3.5710     1.4780 os         1 C5Z      -0.425300
     15 C25         -1.3410     2.5740     0.7500 cc         1 C5Z       0.507500
     16 N26         -2.1250     3.5830     0.5510 nd         1 C5Z      -0.686000
     17 C27         -3.3760     3.1290     0.8900 cd         1 C5Z       0.249900
     18 C29         -3.2950     1.8390     1.2870 cc         1 C5Z       0.102300
     19 C30         -4.2830     0.8270     1.7390 c3         1 C5Z       0.144500
     20 N33         -4.9880     0.1890     0.6410 n3         1 C5Z      -0.710600
     21 C34         -4.1120    -0.5640    -0.2340 c6         1 C5Z       0.159300
     22 C37         -4.8950    -1.2160    -1.3570 c6         1 C5Z       0.164300
     23 N40         -5.9250    -2.1060    -0.8470 n3         1 C5Z      -0.719600
     24 C41         -6.8000    -1.3420     0.0270 c6         1 C5Z       0.164300
     25 C44         -6.0220    -0.6890     1.1530 c6         1 C5Z       0.159300
     26 C47         -6.6560    -2.7940    -1.9150 c3         1 C5Z       0.186500
     27 C49         -5.7110    -3.5820    -2.8190 c3         1 C5Z      -0.091600
     28 C53         -7.6950    -3.7570    -1.3450 c3         1 C5Z      -0.091600
     29 O57         -1.9850     1.4890     1.1980 os         1 C5Z      -0.259000
     30 C58          0.8020     3.6580     0.1080 ca         1 C5Z      -0.128000
     31 C59          0.4810     4.9770    -0.1920 cc         1 C5Z      -0.166100
     32 N61          1.6350     5.5480    -0.5440 na         1 C5Z       0.015500
     33 N62          2.6950     4.7590    -0.5140 nc         1 C5Z      -0.282400
     34 C64          2.2040     3.5830    -0.1150 ca         1 C5Z      -0.075000
     35 C65          2.9110     2.3800     0.0900 ca         1 C5Z      -0.049000
     36 H1           4.4290    -3.7590     3.5380 h1         1 C5Z       0.050367
     37 H2           3.2330    -4.5950     2.5300 h1         1 C5Z       0.050367
     38 H3           4.8970    -5.2100     2.6250 h1         1 C5Z       0.050367
     39 H4           0.2910     0.4490     1.0330 ha         1 C5Z       0.124000
     40 H5           6.5250    -2.5950    -3.3070 h1         1 C5Z       0.048700
     41 H6           6.7840    -0.8520    -3.5330 h1         1 C5Z       0.048700
     42 H7           7.7710    -1.7500    -2.3630 h1         1 C5Z       0.048700
     43 H8           4.1730     0.1400    -0.9860 ha         1 C5Z       0.142000
     44 H9           1.8250    -0.5460     2.5110 h4         1 C5Z       0.025100
     45 H10         -4.2520     3.7540     0.8280 h4         1 C5Z       0.050100
     46 H11         -3.7730     0.0950     2.3880 h1         1 C5Z       0.053200
     47 H12         -5.0240     1.3320     2.3640 h1         1 C5Z       0.053200
     48 H14         -3.3760     0.1020    -0.6880 h1         1 C5Z       0.040700
     49 H15         -3.5540    -1.3400     0.3200 h1         1 C5Z       0.040700
     50 H16         -5.3250    -0.4280    -2.0000 h1         1 C5Z       0.039700
     51 H17         -4.1840    -1.7720    -1.9660 h1         1 C5Z       0.039700
     52 H19         -7.3550    -0.5680    -0.5310 h1         1 C5Z       0.039700
     53 H20         -7.5390    -1.9970     0.4860 h1         1 C5Z       0.039700
     54 H21         -5.5980    -1.4780     1.7990 h1         1 C5Z       0.040700
     55 H22         -6.7140    -0.1090     1.7690 h1         1 C5Z       0.040700
     56 H23         -7.1870    -2.0540    -2.5420 h1         1 C5Z       0.019700
     57 H24         -6.2890    -4.1900    -3.5150 hc         1 C5Z       0.038200
     58 H25         -5.0610    -2.9480    -3.4200 hc         1 C5Z       0.038200
     59 H26         -5.0830    -4.2530    -2.2280 hc         1 C5Z       0.038200
     60 H27         -8.4920    -3.2570    -0.7970 hc         1 C5Z       0.038200
     61 H28         -8.1680    -4.3110    -2.1550 hc         1 C5Z       0.038200
     62 H29         -7.2220    -4.4790    -0.6750 hc         1 C5Z       0.038200
     63 H30         -0.4490     5.5190    -0.1810 h4         1 C5Z       0.250000
     64 H31          1.7500     6.5110    -0.8250 hn         1 C5Z       0.373000
     65 H32          3.9820     2.3440    -0.0650 ha         1 C5Z       0.132000
     66 C06          5.6020    -2.1520    -0.8320 c          1 C5Z       0.616700
@<TRIPOS>BOND
     1     1     9 ar  
     2     1    13 ar  
     3     1    14 1   
     4     2    14 1   
     5     2    36 1   
     6     2    37 1   
     7     2    38 1   
     8     3     4 ar  
     9     3    11 1   
    10     3    35 ar  
    11     4     5 ar  
    12     4    39 1   
    13     5    15 1   
    14     5    30 ar  
    15     6     7 1   
    16     6    40 1   
    17     6    41 1   
    18     6    42 1   
    19     7    66 1   
    20     8    66 2   
    21     9    10 ar  
    22     9    66 1   
    23    10    11 ar  
    24    10    43 1   
    25    11    12 ar  
    26    12    13 ar  
    27    12    44 1   
    28    15    16 2   
    29    15    29 1   
    30    16    17 1   
    31    17    18 2   
    32    17    45 1   
    33    18    19 1   
    34    18    29 1   
    35    19    20 1   
    36    19    46 1   
    37    19    47 1   
    38    20    21 1   
    39    20    25 1   
    40    21    22 1   
    41    21    48 1   
    42    21    49 1   
    43    22    23 1   
    44    22    50 1   
    45    22    51 1   
    46    23    24 1   
    47    23    26 1   
    48    24    25 1   
    49    24    52 1   
    50    24    53 1   
    51    25    54 1   
    52    25    55 1   
    53    26    27 1   
    54    26    28 1   
    55    26    56 1   
    56    27    57 1   
    57    27    58 1   
    58    27    59 1   
    59    28    60 1   
    60    28    61 1   
    61    28    62 1   
    62    30    31 2   
    63    30    34 ar  
    64    31    32 1   
    65    31    63 1   
    66    32    33 1   
    67    32    64 1   
    68    33    34 2   
    69    34    35 ar  
    70    35    65 1   
@<TRIPOS>SUBSTRUCTURE
     1 C5Z         1 TEMP              0 ****  ****    0 ROOT
