@<TRIPOS>MOLECULE
C5Z
   66    70     1     0     0
SMALL
No Charge or Current Charge


@<TRIPOS>ATOM
      1 C15          4.5830    -2.2930     1.3800 ca         1 C5Z       0.639300
      2 C17          4.8680    -4.3180     2.7500 c3         1 C5Z       0.158900
      3 C21          2.3680     1.2660     0.5100 cp         1 C5Z      -0.026000
      4 C22          0.9590     1.2920     0.7230 ca         1 C5Z      -0.086000
      5 C24          0.1790     2.4500     0.4730 ca         1 C5Z      -0.072500
      6 C01          7.2200    -1.7100    -2.6870 c3         1 C5Z       0.155900
      7 O05          6.1070    -1.4580    -1.8090 os         1 C5Z      -0.450100
      8 O07          7.2090    -2.3830    -0.0340 o          1 C5Z      -0.466000
      9 C08          5.0070    -1.4950     0.3060 ca         1 C5Z      -0.223600
     10 C09          4.2840    -0.3240     0.0020 ca         1 C5Z       0.016000
     11 C11          3.1640     0.0280     0.7860 cp         1 C5Z      -0.149000
     12 C12          2.8320    -0.8460     1.8480 ca         1 C5Z       0.424900
     13 N14          3.5130    -1.9740     2.1400 nb         1 C5Z      -0.776000
     14 O16          5.2510    -3.4670     1.6520 os         1 C5Z      -0.425300
     15 C25         -1.2800     2.4390     0.6970 cc         1 C5Z       0.507500
     16 N26         -2.1390     3.4290     0.4770 nd         1 C5Z      -0.686000
     17 C27         -3.3600     2.8960     0.8450 cd         1 C5Z       0.249900
     18 C29         -3.1700     1.6100     1.2740 cc         1 C5Z       0.102300
     19 C30         -4.1520     0.5820     1.7740 c3         1 C5Z       0.144500
     20 N33         -5.0440     0.0400     0.7180 n3         1 C5Z      -0.710600
     21 C34         -4.3110    -0.6890    -0.3610 c6         1 C5Z       0.159300
     22 C37         -5.2660    -1.2260    -1.4740 c6         1 C5Z       0.164300
     23 N40         -6.3630    -2.1060    -0.9410 n3         1 C5Z      -0.719600
     24 C41         -7.0790    -1.3730     0.1610 c6         1 C5Z       0.164300
     25 C44         -6.1170    -0.8380     1.2690 c6         1 C5Z       0.159300
     26 C47         -7.2750    -2.6410    -2.0010 c3         1 C5Z       0.186500
     27 C49         -6.5220    -3.4060    -3.1210 c3         1 C5Z      -0.091600
     28 C53         -8.3910    -3.5580    -1.4360 c3         1 C5Z      -0.091600
     29 O57         -1.8500     1.2990     1.1880 os         1 C5Z      -0.259000
     30 C58          0.8780     3.5810    -0.0020 ca         1 C5Z      -0.128000
     31 C59          0.4300     4.8880    -0.3520 cc         1 C5Z      -0.166100
     32 N61          1.5590     5.5940    -0.7530 na         1 C5Z       0.015500
     33 N62          2.7200     4.8170    -0.6840 nc         1 C5Z      -0.282400
     34 C64          2.2350     3.5930    -0.2180 ca         1 C5Z      -0.075000
     35 C65          2.9990     2.4460     0.0320 ca         1 C5Z      -0.049000
     36 H1           4.9440    -3.7820     3.7060 h1         1 C5Z       0.050367
     37 H2           3.8360    -4.6740     2.6300 h1         1 C5Z       0.050367
     38 H3           5.5250    -5.1950     2.8000 h1         1 C5Z       0.050367
     39 H4           0.4680     0.3880     1.0740 ha         1 C5Z       0.124000
     40 H5           7.4190    -2.7860    -2.7690 h1         1 C5Z       0.048700
     41 H6           7.0080    -1.3260    -3.6930 h1         1 C5Z       0.048700
     42 H7           8.1290    -1.2140    -2.3200 h1         1 C5Z       0.048700
     43 H8           4.5840     0.3060    -0.8340 ha         1 C5Z       0.142000
     44 H9           1.9860    -0.6260     2.4990 h4         1 C5Z       0.025100
     45 H10         -4.2850     3.4550     0.7810 h4         1 C5Z       0.050100
     46 H11         -3.5920    -0.2340     2.2520 h1         1 C5Z       0.053200
     47 H12         -4.7540     1.0570     2.5610 h1         1 C5Z       0.053200
     48 H14         -3.5670    -0.0320    -0.8340 h1         1 C5Z       0.040700
     49 H15         -3.7600    -1.5410     0.0660 h1         1 C5Z       0.040700
     50 H16         -5.6990    -0.3660    -2.0060 h1         1 C5Z       0.039700
     51 H17         -4.6420    -1.7700    -2.1950 h1         1 C5Z       0.039700
     52 H19         -7.6400    -0.5230    -0.2550 h1         1 C5Z       0.039700
     53 H20         -7.8070    -2.0270     0.6580 h1         1 C5Z       0.039700
     54 H21         -5.6710    -1.6990     1.7890 h1         1 C5Z       0.040700
     55 H22         -6.7130    -0.2890     2.0120 h1         1 C5Z       0.040700
     56 H23         -7.7810    -1.7950    -2.4850 h1         1 C5Z       0.019700
     57 H24         -7.2290    -3.8670    -3.8210 hc         1 C5Z       0.038200
     58 H25         -5.8890    -2.7340    -3.7110 hc         1 C5Z       0.038200
     59 H26         -5.8950    -4.1990    -2.6980 hc         1 C5Z       0.038200
     60 H27         -9.0990    -2.9960    -0.8160 hc         1 C5Z       0.038200
     61 H28         -8.9740    -4.0090    -2.2480 hc         1 C5Z       0.038200
     62 H29         -7.9630    -4.3680    -0.8330 hc         1 C5Z       0.038200
     63 H30         -0.5490     5.3570    -0.3500 h4         1 C5Z       0.250000
     64 H31          1.5940     6.5610    -1.0680 hn         1 C5Z       0.373000
     65 H32          4.0730     2.4740    -0.1290 ha         1 C5Z       0.132000
     66 C06          6.1980    -1.8830    -0.5080 c          1 C5Z       0.616700
@<TRIPOS>BOND
     1     1     9 ar  
     2     1    13 ar  
     3     1    14 1   
     4     2    14 1   
     5     2    36 1   
     6     2    37 1   
     7     2    38 1   
     8     3     4 ar  
     9     3    11 1   
    10     3    35 ar  
    11     4     5 ar  
    12     4    39 1   
    13     5    15 1   
    14     5    30 ar  
    15     6     7 1   
    16     6    40 1   
    17     6    41 1   
    18     6    42 1   
    19     7    66 1   
    20     8    66 2   
    21     9    10 ar  
    22     9    66 1   
    23    10    11 ar  
    24    10    43 1   
    25    11    12 ar  
    26    12    13 ar  
    27    12    44 1   
    28    15    16 2   
    29    15    29 1   
    30    16    17 1   
    31    17    18 2   
    32    17    45 1   
    33    18    19 1   
    34    18    29 1   
    35    19    20 1   
    36    19    46 1   
    37    19    47 1   
    38    20    21 1   
    39    20    25 1   
    40    21    22 1   
    41    21    48 1   
    42    21    49 1   
    43    22    23 1   
    44    22    50 1   
    45    22    51 1   
    46    23    24 1   
    47    23    26 1   
    48    24    25 1   
    49    24    52 1   
    50    24    53 1   
    51    25    54 1   
    52    25    55 1   
    53    26    27 1   
    54    26    28 1   
    55    26    56 1   
    56    27    57 1   
    57    27    58 1   
    58    27    59 1   
    59    28    60 1   
    60    28    61 1   
    61    28    62 1   
    62    30    31 2   
    63    30    34 ar  
    64    31    32 1   
    65    31    63 1   
    66    32    33 1   
    67    32    64 1   
    68    33    34 2   
    69    34    35 ar  
    70    35    65 1   
@<TRIPOS>SUBSTRUCTURE
     1 C5Z         1 TEMP              0 ****  ****    0 ROOT
