@<TRIPOS>MOLECULE
C60
  114   116     1     0     0
SMALL
No Charge or Current Charge


@<TRIPOS>ATOM
      1 CS1         -5.2260    -5.3450    -0.1010 c3         1 C60      -0.209000
      2 CS2         -5.7350    -5.4000     1.3690 c3         1 C60      -0.088433
      3 CS3         -3.7740    -5.9050    -0.1680 c3         1 C60      -0.088433
      4 CS4         -6.1470    -6.2280    -0.9920 c3         1 C60      -0.088433
      5 SS          -5.2870    -3.6020    -0.7360 s6         1 C60       1.027000
      6 OS1         -4.6140    -3.5690    -2.0410 o          1 C60      -0.516000
      7 OS2         -6.6750    -3.1330    -0.6400 o          1 C60      -0.516000
      8 CNF         -4.2920    -2.6110     0.4170 c3         1 C60      -0.284400
      9 CAF         -3.9530    -1.1580    -0.0530 c3         1 C60      -0.105700
     10 CBF         -5.1820    -0.2100    -0.0780 c3         1 C60      -0.025100
     11 C1F         -4.8330     1.1970    -0.5470 ca         1 C60      -0.089300
     12 C2F         -4.6420     1.4610    -1.9180 ca         1 C60      -0.099000
     13 C3F         -4.3390     2.7630    -2.3540 ca         1 C60      -0.113500
     14 C4F         -4.2260     3.8080    -1.4230 ca         1 C60      -0.109000
     15 C5F         -4.4030     3.5490    -0.0540 ca         1 C60      -0.113500
     16 C6F         -4.7070     2.2480     0.3830 ca         1 C60      -0.099000
     17 CF          -2.8370    -0.5710     0.8400 c          1 C60       0.617100
     18 OF          -2.9980    -0.3450     2.0310 o          1 C60      -0.600100
     19 NH          -1.6390    -0.3330     0.2020 ns         1 C60      -0.491900
     20 CAH         -0.3950     0.1010     0.8770 c3         1 C60       0.032700
     21 CBH          0.4880    -1.1170     1.2600 c3         1 C60      -0.017100
     22 C1H         -0.2170    -2.1650     2.0860 cc         1 C60      -0.210300
     23 N1H         -0.5520    -3.4280     1.6450 na         1 C60      -0.302500
     24 C2H         -0.6430    -2.1160     3.3910 cd         1 C60       0.241900
     25 N2H         -1.2240    -3.3160     3.7550 nd         1 C60      -0.674000
     26 C3H         -1.1620    -4.0910     2.6830 cc         1 C60       0.378400
     27 CH           0.4040     1.0760    -0.0300 c          1 C60       0.591100
     28 OH           0.2450     1.1430    -1.2430 o          1 C60      -0.600100
     29 NC           1.3230     1.8570     0.6360 ns         1 C60      -0.501900
     30 CAC          2.2600     2.8030     0.0120 c3         1 C60       0.080700
     31 CBC          1.7970     4.2680     0.2460 c3         1 C60      -0.084400
     32 C1C          0.4420     4.6770    -0.4160 c6         1 C60      -0.061700
     33 C2C         -0.0220     6.0730     0.0870 c6         1 C60      -0.071400
     34 C3C         -1.3740     6.4850    -0.5460 c6         1 C60      -0.074400
     35 C4C         -1.2980     6.4670    -2.0910 c6         1 C60      -0.074400
     36 C5C         -0.8280     5.0870    -2.6120 c6         1 C60      -0.074400
     37 C6C          0.5190     4.6720    -1.9720 c6         1 C60      -0.071400
     38 CC           3.7140     2.5410     0.5150 c3         1 C60       0.157300
     39 OC           3.7480     2.6560     1.9470 oh         1 C60      -0.658000
     40 CNV          4.2340     1.1350     0.0990 c3         1 C60      -0.100400
     41 CAV          5.7860     0.9390     0.1010 c3         1 C60      -0.126700
     42 CBV          6.5020     1.0400     1.4920 c3         1 C60      -0.054700
     43 C1V          5.9690     0.0550     2.5650 c3         1 C60      -0.087600
     44 C2V          8.0390     0.9070     1.3550 c3         1 C60      -0.087600
     45 CV           6.1550    -0.3620    -0.6570 c          1 C60       0.601100
     46 OV           5.7840    -1.4720    -0.3030 o          1 C60      -0.613100
     47 NT           6.9230    -0.1770    -1.7870 ns         1 C60      -0.507900
     48 C1T          7.4480    -1.2550    -2.6260 c3         1 C60       0.104000
     49 C2T          8.6850    -1.9250    -1.9950 c3         1 C60      -0.097400
     50 C3T          9.2720    -3.0510    -2.8720 c3         1 C60      -0.072400
     51 C4T         10.5100    -3.7210    -2.2440 c3         1 C60      -0.090100
     52 HS21        -5.0810    -4.8340     2.0440 hc         1 C60       0.054811
     53 HS22        -6.7490    -4.9900     1.4560 hc         1 C60       0.054811
     54 HS23        -5.7630    -6.4350     1.7330 hc         1 C60       0.054811
     55 HS31        -3.7500    -6.9560     0.1470 hc         1 C60       0.054811
     56 HS32        -3.3740    -5.8580    -1.1890 hc         1 C60       0.054811
     57 HS33        -3.0940    -5.3540     0.4900 hc         1 C60       0.054811
     58 HS41        -7.1870    -5.8780    -0.9600 hc         1 C60       0.054811
     59 HS42        -5.8180    -6.2130    -2.0390 hc         1 C60       0.054811
     60 HS43        -6.1370    -7.2720    -0.6540 hc         1 C60       0.054811
     61 HNF1        -4.8340    -2.5930     1.3690 h1         1 C60       0.108200
     62 HNF2        -3.3600    -3.1670     0.5550 h1         1 C60       0.108200
     63 HAF         -3.5560    -1.2210    -1.0740 hc         1 C60       0.079700
     64 HBF1        -5.9530    -0.6180    -0.7420 hc         1 C60       0.069700
     65 HBF2        -5.6340    -0.1780     0.9210 hc         1 C60       0.069700
     66 H2F         -4.7350     0.6580    -2.6470 ha         1 C60       0.120500
     67 H3F         -4.1980     2.9620    -3.4140 ha         1 C60       0.111500
     68 H4F         -4.0010     4.8160    -1.7610 ha         1 C60       0.110000
     69 H5F         -4.3110     4.3570     0.6690 ha         1 C60       0.111500
     70 H6F         -4.8460     2.0590     1.4450 ha         1 C60       0.120500
     71 HNH         -1.6070    -0.5020    -0.7970 hn         1 C60       0.329500
     72 HAH         -0.6570     0.6530     1.7890 h1         1 C60       0.092700
     73 HBH1         0.8730    -1.5750     0.3400 hc         1 C60       0.066200
     74 HBH2         1.3690    -0.7610     1.8090 hc         1 C60       0.066200
     75 HNH1        -0.3740    -3.8220     0.7290 hn         1 C60       0.354000
     76 H2H         -0.5590    -1.2880     4.0860 h4         1 C60       0.051100
     77 H3H         -1.5210    -5.1110     2.5960 h5         1 C60       0.056100
     78 HNC          1.3980     1.7290     1.6390 hn         1 C60       0.315500
     79 HAC          2.2710     2.6260    -1.0710 h1         1 C60       0.085700
     80 HBC1         1.7340     4.4350     1.3280 hc         1 C60       0.052200
     81 HBC2         2.5840     4.9430    -0.1120 hc         1 C60       0.052200
     82 H1C         -0.3080     3.9380    -0.0990 hc         1 C60       0.051700
     83 H2C1        -0.1220     6.0630     1.1810 hc         1 C60       0.038700
     84 H2C2         0.7400     6.8280    -0.1490 hc         1 C60       0.038700
     85 H3C1        -2.1640     5.8020    -0.2050 hc         1 C60       0.041200
     86 H3C2        -1.6580     7.4880    -0.1980 hc         1 C60       0.041200
     87 H4C1        -2.2800     6.7120    -2.5170 hc         1 C60       0.036700
     88 H4C2        -0.6050     7.2470    -2.4360 hc         1 C60       0.036700
     89 H5C1        -1.5870     4.3260    -2.3890 hc         1 C60       0.041200
     90 H5C2        -0.7280     5.1160    -3.7050 hc         1 C60       0.041200
     91 H6C1         1.3110     5.3560    -2.3090 hc         1 C60       0.038700
     92 H6C2         0.7920     3.6760    -2.3440 hc         1 C60       0.038700
     93 HNV1         3.7500     0.3590     0.7040 hc         1 C60       0.064200
     94 HNV2         3.8940     0.9520    -0.9290 hc         1 C60       0.064200
     95 HAV          6.1930     1.7670    -0.4930 hc         1 C60       0.045700
     96 HBV          6.3340     2.0540     1.8740 hc         1 C60       0.064700
     97 H1V1         6.1660    -0.9850     2.2840 hc         1 C60       0.035367
     98 H1V2         6.4620     0.2380     3.5280 hc         1 C60       0.035367
     99 H1V3         4.8910     0.1690     2.7230 hc         1 C60       0.035367
    100 H2V1         8.4290     1.6220     0.6210 hc         1 C60       0.035367
    101 H2V2         8.5310     1.1110     2.3140 hc         1 C60       0.035367
    102 H2V3         8.3260    -0.1030     1.0380 hc         1 C60       0.035367
    103 HNT          7.1760     0.7770    -2.0140 hn         1 C60       0.310500
    104 H1T1         6.6600    -2.0040    -2.7840 h1         1 C60       0.051700
    105 H1T2         7.7170    -0.8350    -3.6040 h1         1 C60       0.051700
    106 H2T1         9.4550    -1.1620    -1.8220 hc         1 C60       0.041700
    107 H2T2         8.4150    -2.3360    -1.0140 hc         1 C60       0.041700
    108 H3T1         8.5030    -3.8140    -3.0470 hc         1 C60       0.041700
    109 H3T2         9.5470    -2.6430    -3.8530 hc         1 C60       0.041700
    110 H4T1        11.3110    -2.9890    -2.0890 hc         1 C60       0.034033
    111 H4T2        10.2590    -4.1710    -1.2760 hc         1 C60       0.034033
    112 H4T3        10.8900    -4.5130    -2.9010 hc         1 C60       0.034033
    113 H62          4.3670     3.2960     0.0550 h1         1 C60       0.072700
    114 H63          4.6060     2.2910     2.2430 ho         1 C60       0.442000
@<TRIPOS>BOND
     1     1     2 1   
     2     1     3 1   
     3     1     4 1   
     4     1     5 1   
     5     2    52 1   
     6     2    53 1   
     7     2    54 1   
     8     3    55 1   
     9     3    56 1   
    10     3    57 1   
    11     4    58 1   
    12     4    59 1   
    13     4    60 1   
    14     5     6 2   
    15     5     7 2   
    16     5     8 1   
    17     8     9 1   
    18     8    61 1   
    19     8    62 1   
    20     9    10 1   
    21     9    17 1   
    22     9    63 1   
    23    10    11 1   
    24    10    64 1   
    25    10    65 1   
    26    11    12 ar  
    27    11    16 ar  
    28    12    13 ar  
    29    12    66 1   
    30    13    14 ar  
    31    13    67 1   
    32    14    15 ar  
    33    14    68 1   
    34    15    16 ar  
    35    15    69 1   
    36    16    70 1   
    37    17    18 2   
    38    17    19 1   
    39    19    20 1   
    40    19    71 1   
    41    20    21 1   
    42    20    27 1   
    43    20    72 1   
    44    21    22 1   
    45    21    73 1   
    46    21    74 1   
    47    22    23 1   
    48    22    24 2   
    49    23    26 1   
    50    23    75 1   
    51    24    25 1   
    52    24    76 1   
    53    25    26 2   
    54    26    77 1   
    55    27    28 2   
    56    27    29 1   
    57    29    30 1   
    58    29    78 1   
    59    30    31 1   
    60    30    38 1   
    61    30    79 1   
    62    31    32 1   
    63    31    80 1   
    64    31    81 1   
    65    32    33 1   
    66    32    37 1   
    67    32    82 1   
    68    33    34 1   
    69    33    83 1   
    70    33    84 1   
    71    34    35 1   
    72    34    85 1   
    73    34    86 1   
    74    35    36 1   
    75    35    87 1   
    76    35    88 1   
    77    36    37 1   
    78    36    89 1   
    79    36    90 1   
    80    37    91 1   
    81    37    92 1   
    82    38    39 1   
    83    38    40 1   
    84    38   113 1   
    85    39   114 1   
    86    40    41 1   
    87    40    93 1   
    88    40    94 1   
    89    41    42 1   
    90    41    45 1   
    91    41    95 1   
    92    42    43 1   
    93    42    44 1   
    94    42    96 1   
    95    43    97 1   
    96    43    98 1   
    97    43    99 1   
    98    44   100 1   
    99    44   101 1   
   100    44   102 1   
   101    45    46 2   
   102    45    47 1   
   103    47    48 1   
   104    47   103 1   
   105    48    49 1   
   106    48   104 1   
   107    48   105 1   
   108    49    50 1   
   109    49   106 1   
   110    49   107 1   
   111    50    51 1   
   112    50   108 1   
   113    50   109 1   
   114    51   110 1   
   115    51   111 1   
   116    51   112 1   
@<TRIPOS>SUBSTRUCTURE
     1 C60         1 TEMP              0 ****  ****    0 ROOT
