@<TRIPOS>MOLECULE
C60
  114   116     1     0     0
SMALL
abcg2


@<TRIPOS>ATOM
      1 CS1         -5.0390    -4.9130     0.2200 c3         1 C60      -0.209000
      2 CS2         -5.1250    -4.9680     1.7410 c3         1 C60      -0.088433
      3 CS3         -3.6740    -5.3620    -0.2860 c3         1 C60      -0.088433
      4 CS4         -6.1460    -5.7450    -0.4260 c3         1 C60      -0.088433
      5 SS          -5.3540    -3.1930    -0.3220 s6         1 C60       1.027000
      6 OS1         -5.0730    -3.0960    -1.7580 o          1 C60      -0.516000
      7 OS2         -6.6970    -2.8140     0.1310 o          1 C60      -0.516000
      8 CNF         -4.1550    -2.1580     0.5460 c3         1 C60      -0.284400
      9 CAF         -3.9000    -0.8370    -0.1910 c3         1 C60      -0.105700
     10 CBF         -5.1280     0.0720    -0.2730 c3         1 C60      -0.025100
     11 C1F         -4.8620     1.3090    -1.0880 ca         1 C60      -0.089300
     12 C2F         -4.8470     1.2320    -2.4800 ca         1 C60      -0.099000
     13 C3F         -4.6040     2.3580    -3.2530 ca         1 C60      -0.113500
     14 C4F         -4.3740     3.5850    -2.6430 ca         1 C60      -0.109000
     15 C5F         -4.3850     3.6720    -1.2580 ca         1 C60      -0.113500
     16 C6F         -4.6250     2.5420    -0.4870 ca         1 C60      -0.099000
     17 CF          -2.7710    -0.1690     0.5900 c          1 C60       0.617100
     18 OF          -2.9890     0.4750     1.6010 o          1 C60      -0.600100
     19 NH          -1.5390    -0.4210     0.1130 ns         1 C60      -0.491900
     20 CAH         -0.3350    -0.1460     0.8510 c3         1 C60       0.032700
     21 CBH          0.3900    -1.4500     1.2220 c3         1 C60      -0.017100
     22 C1H         -0.4780    -2.3720     2.0060 cc         1 C60      -0.210300
     23 N1H         -0.5190    -3.7200     1.7790 na         1 C60      -0.302500
     24 C2H         -1.3650    -2.1710     3.0300 cd         1 C60       0.241900
     25 N2H         -1.9290    -3.3540     3.4180 nd         1 C60      -0.674000
     26 C3H         -1.3940    -4.2650     2.6480 cc         1 C60       0.378400
     27 CH           0.6130     0.7150     0.0210 c          1 C60       0.591100
     28 OH           0.7820     0.4880    -1.1670 o          1 C60      -0.600100
     29 NC           1.2570     1.6610     0.7190 ns         1 C60      -0.501900
     30 CAC          2.2340     2.5870     0.1750 c3         1 C60       0.080700
     31 CBC          1.8170     4.0250     0.4740 c3         1 C60      -0.084400
     32 C1C          0.4760     4.4400    -0.1270 c6         1 C60      -0.061700
     33 C2C          0.0900     5.8390     0.3550 c6         1 C60      -0.071400
     34 C3C         -1.2410     6.3030    -0.2270 c6         1 C60      -0.074400
     35 C4C         -1.2280     6.2520    -1.7510 c6         1 C60      -0.074400
     36 C5C         -0.8440     4.8630    -2.2470 c6         1 C60      -0.074400
     37 C6C          0.4800     4.3920    -1.6560 c6         1 C60      -0.071400
     38 CC           3.6410     2.2640     0.7070 c3         1 C60       0.157300
     39 OC           3.7000     2.4340     2.1090 oh         1 C60      -0.658000
     40 CNV          4.1130     0.8870     0.2420 c3         1 C60      -0.100400
     41 CAV          5.6270     0.6580     0.3160 c3         1 C60      -0.126700
     42 CBV          6.2450     0.6990     1.7350 c3         1 C60      -0.054700
     43 C1V          5.6830    -0.3390     2.7020 c3         1 C60      -0.087600
     44 C2V          7.7690     0.5990     1.6910 c3         1 C60      -0.087600
     45 CV           5.9680    -0.6490    -0.3800 c          1 C60       0.601100
     46 OV           5.3530    -1.6870    -0.1650 o          1 C60      -0.613100
     47 NT           7.0020    -0.5930    -1.2340 ns         1 C60      -0.507900
     48 C1T          7.5620    -1.7530    -1.8950 c3         1 C60       0.104000
     49 C2T          8.9500    -1.4410    -2.4320 c3         1 C60      -0.097400
     50 C3T          9.6030    -2.6470    -3.0920 c3         1 C60      -0.072400
     51 C4T         10.9930    -2.3330    -3.6270 c3         1 C60      -0.090100
     52 HS21        -4.3540    -4.3670     2.2270 hc         1 C60       0.054811
     53 HS22        -6.1000    -4.6480     2.1070 hc         1 C60       0.054811
     54 HS23        -4.9750    -6.0000     2.0590 hc         1 C60       0.054811
     55 HS31        -3.5430    -6.4130    -0.0270 hc         1 C60       0.054811
     56 HS32        -3.5890    -5.2750    -1.3680 hc         1 C60       0.054811
     57 HS33        -2.8490    -4.8190     0.1740 hc         1 C60       0.054811
     58 HS41        -7.1350    -5.4510    -0.0790 hc         1 C60       0.054811
     59 HS42        -6.1190    -5.6810    -1.5140 hc         1 C60       0.054811
     60 HS43        -5.9940    -6.7890    -0.1530 hc         1 C60       0.054811
     61 HNF1        -4.5360    -1.9920     1.5540 h1         1 C60       0.108200
     62 HNF2        -3.2250    -2.7240     0.6210 h1         1 C60       0.108200
     63 HAF         -3.5540    -1.0720    -1.2010 hc         1 C60       0.079700
     64 HBF1        -5.9510    -0.4760    -0.7310 hc         1 C60       0.069700
     65 HBF2        -5.4510     0.3380     0.7340 hc         1 C60       0.069700
     66 H2F         -5.0370     0.2810    -2.9650 ha         1 C60       0.120500
     67 H3F         -4.6010     2.2800    -4.3330 ha         1 C60       0.111500
     68 H4F         -4.1850     4.4650    -3.2440 ha         1 C60       0.110000
     69 H5F         -4.2030     4.6230    -0.7730 ha         1 C60       0.111500
     70 H6F         -4.6320     2.6200     0.5920 ha         1 C60       0.120500
     71 HNH         -1.4480    -0.9520    -0.7400 hn         1 C60       0.329500
     72 HAH         -0.6240     0.3800     1.7610 h1         1 C60       0.092700
     73 HBH1         0.7210    -1.9460     0.3060 hc         1 C60       0.066200
     74 HBH2         1.2960    -1.2000     1.7820 hc         1 C60       0.066200
     75 HNH1         0.0220    -4.2230     1.0920 hn         1 C60       0.354000
     76 H2H         -1.6360    -1.2350     3.4940 h4         1 C60       0.051100
     77 H3H         -1.5990    -5.3250     2.6750 h5         1 C60       0.056100
     78 HNC          0.9620     1.8210     1.6710 hn         1 C60       0.315500
     79 HAC          2.2580     2.4370    -0.9050 h1         1 C60       0.085700
     80 HBC1         1.7870     4.1730     1.5580 hc         1 C60       0.052200
     81 HBC2         2.5990     4.6920     0.0950 hc         1 C60       0.052200
     82 H1C         -0.2980     3.7460     0.2290 hc         1 C60       0.051700
     83 H2C1         0.0450     5.8510     1.4480 hc         1 C60       0.038700
     84 H2C2         0.8780     6.5470     0.0710 hc         1 C60       0.038700
     85 H3C1        -2.0440     5.6590     0.1490 hc         1 C60       0.041200
     86 H3C2        -1.4700     7.3140     0.1180 hc         1 C60       0.041200
     87 H4C1        -2.2050     6.5390    -2.1490 hc         1 C60       0.036700
     88 H4C2        -0.5110     6.9870    -2.1310 hc         1 C60       0.036700
     89 H5C1        -1.6320     4.1530    -1.9750 hc         1 C60       0.041200
     90 H5C2        -0.7880     4.8540    -3.3390 hc         1 C60       0.041200
     91 H6C1         1.2980     5.0220    -2.0290 hc         1 C60       0.038700
     92 H6C2         0.6860     3.3770    -2.0060 hc         1 C60       0.038700
     93 HNV1         3.5750     0.0990     0.7760 hc         1 C60       0.064200
     94 HNV2         3.8140     0.7770    -0.8040 hc         1 C60       0.064200
     95 HAV          6.0980     1.4760    -0.2430 hc         1 C60       0.045700
     96 HBV          6.0050     1.6860     2.1330 hc         1 C60       0.064700
     97 H1V1         5.9630    -1.3530     2.4190 hc         1 C60       0.035367
     98 H1V2         6.0720    -0.1570     3.7050 hc         1 C60       0.035367
     99 H1V3         4.5950    -0.3110     2.7730 hc         1 C60       0.035367
    100 H2V1         8.2020     1.3290     1.0040 hc         1 C60       0.035367
    101 H2V2         8.1870     0.7950     2.6790 hc         1 C60       0.035367
    102 H2V3         8.1130    -0.3910     1.3850 hc         1 C60       0.035367
    103 HNT          7.4510     0.2960    -1.3840 hn         1 C60       0.310500
    104 H1T1         7.6190    -2.5780    -1.1820 h1         1 C60       0.051700
    105 H1T2         6.9120    -2.0840    -2.7120 h1         1 C60       0.051700
    106 H2T1         8.8880    -0.6180    -3.1530 hc         1 C60       0.041700
    107 H2T2         9.5820    -1.0890    -1.6090 hc         1 C60       0.041700
    108 H3T1         9.6650    -3.4660    -2.3700 hc         1 C60       0.041700
    109 H3T2         8.9680    -3.0060    -3.9080 hc         1 C60       0.041700
    110 H4T1        10.9560    -1.5520    -4.3870 hc         1 C60       0.034033
    111 H4T2        11.6510    -1.9840    -2.8280 hc         1 C60       0.034033
    112 H4T3        11.4560    -3.2110    -4.0760 hc         1 C60       0.034033
    113 H62          4.3120     3.0210     0.2860 h1         1 C60       0.072700
    114 H63          3.3470     1.6440     2.5310 ho         1 C60       0.442000
@<TRIPOS>BOND
     1     1     2 1   
     2     1     3 1   
     3     1     4 1   
     4     1     5 1   
     5     2    52 1   
     6     2    53 1   
     7     2    54 1   
     8     3    55 1   
     9     3    56 1   
    10     3    57 1   
    11     4    58 1   
    12     4    59 1   
    13     4    60 1   
    14     5     6 2   
    15     5     7 2   
    16     5     8 1   
    17     8     9 1   
    18     8    61 1   
    19     8    62 1   
    20     9    10 1   
    21     9    17 1   
    22     9    63 1   
    23    10    11 1   
    24    10    64 1   
    25    10    65 1   
    26    11    12 ar  
    27    11    16 ar  
    28    12    13 ar  
    29    12    66 1   
    30    13    14 ar  
    31    13    67 1   
    32    14    15 ar  
    33    14    68 1   
    34    15    16 ar  
    35    15    69 1   
    36    16    70 1   
    37    17    18 2   
    38    17    19 1   
    39    19    20 1   
    40    19    71 1   
    41    20    21 1   
    42    20    27 1   
    43    20    72 1   
    44    21    22 1   
    45    21    73 1   
    46    21    74 1   
    47    22    23 1   
    48    22    24 2   
    49    23    26 1   
    50    23    75 1   
    51    24    25 1   
    52    24    76 1   
    53    25    26 2   
    54    26    77 1   
    55    27    28 2   
    56    27    29 1   
    57    29    30 1   
    58    29    78 1   
    59    30    31 1   
    60    30    38 1   
    61    30    79 1   
    62    31    32 1   
    63    31    80 1   
    64    31    81 1   
    65    32    33 1   
    66    32    37 1   
    67    32    82 1   
    68    33    34 1   
    69    33    83 1   
    70    33    84 1   
    71    34    35 1   
    72    34    85 1   
    73    34    86 1   
    74    35    36 1   
    75    35    87 1   
    76    35    88 1   
    77    36    37 1   
    78    36    89 1   
    79    36    90 1   
    80    37    91 1   
    81    37    92 1   
    82    38    39 1   
    83    38    40 1   
    84    38   113 1   
    85    39   114 1   
    86    40    41 1   
    87    40    93 1   
    88    40    94 1   
    89    41    42 1   
    90    41    45 1   
    91    41    95 1   
    92    42    43 1   
    93    42    44 1   
    94    42    96 1   
    95    43    97 1   
    96    43    98 1   
    97    43    99 1   
    98    44   100 1   
    99    44   101 1   
   100    44   102 1   
   101    45    46 2   
   102    45    47 1   
   103    47    48 1   
   104    47   103 1   
   105    48    49 1   
   106    48   104 1   
   107    48   105 1   
   108    49    50 1   
   109    49   106 1   
   110    49   107 1   
   111    50    51 1   
   112    50   108 1   
   113    50   109 1   
   114    51   110 1   
   115    51   111 1   
   116    51   112 1   
@<TRIPOS>SUBSTRUCTURE
     1 C60         1 TEMP              0 ****  ****    0 ROOT
