@<TRIPOS>MOLECULE
C61
   82    82     1     0     0
SMALL
No Charge or Current Charge


@<TRIPOS>ATOM
      1 C2          -9.6960     2.3030    -3.5770 c3         1 C61       0.146900
      2 O3          -9.1360     1.1850    -2.8680 os         1 C61      -0.450000
      3 C4          -7.7280     1.2940    -2.6030 c3         1 C61       0.160600
      4 C5          -7.2960     0.0270    -1.8460 c3         1 C61      -0.085400
      5 C6          -5.7960     0.0290    -1.5040 c3         1 C61       0.163600
      6 O7          -5.5070    -1.1910    -0.8020 os         1 C61      -0.327100
      7 C9          -5.0460    -4.8000     1.2540 c3         1 C61       0.145900
      8 C10         -3.1380    -0.6370    -0.5510 ca         1 C61      -0.168000
      9 C11         -4.2380    -1.5010    -0.3410 ca         1 C61       0.116100
     10 C12         -4.0500    -2.7170     0.3580 ca         1 C61       0.106100
     11 C13         -2.7640    -3.0550     0.8370 ca         1 C61      -0.166000
     12 C14         -1.6810    -2.1870     0.6250 ca         1 C61      -0.110000
     13 C15         -1.8620    -0.9710    -0.0580 ca         1 C61      -0.066300
     14 C16         -0.6810    -0.0310    -0.2880 c3         1 C61      -0.025100
     15 C17          0.0220     0.5140     1.0010 c3         1 C61      -0.042700
     16 C18         -0.8870     1.4330     1.9000 c3         1 C61      -0.056700
     17 C19         -1.4100     2.7020     1.1810 c3         1 C61      -0.081600
     18 C20         -2.0490     0.6880     2.6040 c3         1 C61      -0.081600
     19 C21          1.3940     1.1560     0.5970 c3         1 C61      -0.065400
     20 C22          2.3770     1.5270     1.7520 c3         1 C61       0.143500
     21 N23          2.0560     2.8610     2.3280 n8         1 C61      -1.013200
     22 C24          3.8780     1.4430     1.2970 c3         1 C61       0.117300
     23 O25          4.1690     2.4480     0.3090 oh         1 C61      -0.663000
     24 C26          4.8880     1.5770     2.4720 c3         1 C61      -0.107400
     25 C27          6.3790     1.3740     2.0740 c3         1 C61      -0.132700
     26 C28          7.3260     1.5290     3.2890 c3         1 C61      -0.080100
     27 C29          6.6070     0.0200     1.3680 c          1 C61       0.596100
     28 O30          6.4170    -1.0570     1.9180 o          1 C61      -0.610100
     29 N31          7.0340     0.1050     0.0630 ns         1 C61      -0.501900
     30 C32          7.2890    -1.0460    -0.8010 c3         1 C61       0.103000
     31 C33          7.4630    -0.6230    -2.2720 c3         1 C61      -0.095400
     32 C34          7.7280    -1.8180    -3.2120 c3         1 C61      -0.073400
     33 C35          7.9020    -1.4000    -4.6850 c3         1 C61      -0.089100
     34 H2C1        -9.2130     2.4260    -4.5550 h1         1 C61       0.028700
     35 H2C2       -10.7700     2.1500    -3.7430 h1         1 C61       0.028700
     36 H2C3        -9.5670     3.2320    -3.0050 h1         1 C61       0.028700
     37 H4C1        -7.1620     1.3740    -3.5400 h1         1 C61       0.018700
     38 H4C2        -7.5160     2.1800    -1.9900 h1         1 C61       0.018700
     39 H5C1        -7.8760    -0.0550    -0.9190 hc         1 C61       0.070200
     40 H5C2        -7.5240    -0.8540    -2.4570 hc         1 C61       0.070200
     41 H6C1        -5.2090     0.0920    -2.4300 h1         1 C61       0.030200
     42 H6C2        -5.5640     0.9010    -0.8780 h1         1 C61       0.030200
     43 H9C1        -4.3460    -5.4780     0.7480 h1         1 C61       0.038033
     44 H9C2        -4.7040    -4.6440     2.2850 h1         1 C61       0.038033
     45 H9C3        -6.0260    -5.2910     1.2920 h1         1 C61       0.038033
     46 H13         -2.5850    -3.9820     1.3730 ha         1 C61       0.118000
     47 H14         -0.6960    -2.4620     0.9950 ha         1 C61       0.112000
     48 H161         0.0570    -0.5820    -0.8830 hc         1 C61       0.043700
     49 H162        -0.9780     0.8150    -0.9200 hc         1 C61       0.043700
     50 H17          0.2800    -0.3600     1.6120 hc         1 C61       0.042700
     51 H18         -0.2600     1.7800     2.7280 hc         1 C61       0.062700
     52 H211         1.9110     0.4310    -0.0430 hc         1 C61       0.045200
     53 H212         1.2260     2.0310    -0.0410 hc         1 C61       0.045200
     54 H191        -2.1110     2.4430     0.3790 hc         1 C61       0.029867
     55 H192        -1.9370     3.3520     1.8890 hc         1 C61       0.029867
     56 H193        -0.5880     3.2830     0.7480 hc         1 C61       0.029867
     57 H201        -1.7070    -0.2620     3.0310 hc         1 C61       0.029867
     58 H202        -2.4480     1.2980     3.4240 hc         1 C61       0.029867
     59 H203        -2.8790     0.4870     1.9190 hc         1 C61       0.029867
     60 H22          2.2510     0.7780     2.5480 h1         1 C61       0.069700
     61 H231         2.8070     3.1500     2.9630 hn         1 C61       0.399000
     62 H232         2.0710     3.5600     1.5780 hn         1 C61       0.399000
     63 H24          4.0180     0.4440     0.8570 h1         1 C61       0.085700
     64 H25          4.1930     3.3090     0.7750 ho         1 C61       0.434000
     65 H261         4.7790     2.5620     2.9430 hc         1 C61       0.053700
     66 H262         4.6260     0.8380     3.2400 hc         1 C61       0.053700
     67 H27          6.6440     2.1700     1.3670 hc         1 C61       0.054700
     68 H281         7.2110     2.5180     3.7480 hc         1 C61       0.043700
     69 H282         7.1120     0.7700     4.0520 hc         1 C61       0.043700
     70 H283         8.3720     1.4180     2.9790 hc         1 C61       0.043700
     71 H31          7.1460     1.0360    -0.3210 hn         1 C61       0.320500
     72 H321         8.1970    -1.5550    -0.4510 h1         1 C61       0.049200
     73 H322         6.4470    -1.7470    -0.7190 h1         1 C61       0.049200
     74 H331         6.5590    -0.0970    -2.6030 hc         1 C61       0.044200
     75 H332         8.2960     0.0870    -2.3460 hc         1 C61       0.044200
     76 H341         8.6320    -2.3470    -2.8830 hc         1 C61       0.041200
     77 H342         6.8960    -2.5300    -3.1400 hc         1 C61       0.041200
     78 H351         6.9990    -0.8980    -5.0550 hc         1 C61       0.033033
     79 H352         8.7500    -0.7140    -4.7970 hc         1 C61       0.033033
     80 H353         8.0870    -2.2790    -5.3130 hc         1 C61       0.033033
     81 H10         -3.2610     0.3010    -1.0840 ha         1 C61       0.116000
     82 O8          -5.1420    -3.5480     0.5520 os         1 C61      -0.321100
@<TRIPOS>BOND
     1     1     2 1   
     2     1    34 1   
     3     1    35 1   
     4     1    36 1   
     5     2     3 1   
     6     3     4 1   
     7     3    37 1   
     8     3    38 1   
     9     4     5 1   
    10     4    39 1   
    11     4    40 1   
    12     5     6 1   
    13     5    41 1   
    14     5    42 1   
    15     6     9 1   
    16     7    43 1   
    17     7    44 1   
    18     7    45 1   
    19     7    82 1   
    20     8     9 ar  
    21     8    13 ar  
    22     8    81 1   
    23     9    10 ar  
    24    10    11 ar  
    25    10    82 1   
    26    11    12 ar  
    27    11    46 1   
    28    12    13 ar  
    29    12    47 1   
    30    13    14 1   
    31    14    15 1   
    32    14    48 1   
    33    14    49 1   
    34    15    16 1   
    35    15    19 1   
    36    15    50 1   
    37    16    17 1   
    38    16    18 1   
    39    16    51 1   
    40    17    54 1   
    41    17    55 1   
    42    17    56 1   
    43    18    57 1   
    44    18    58 1   
    45    18    59 1   
    46    19    20 1   
    47    19    52 1   
    48    19    53 1   
    49    20    21 1   
    50    20    22 1   
    51    20    60 1   
    52    21    61 1   
    53    21    62 1   
    54    22    23 1   
    55    22    24 1   
    56    22    63 1   
    57    23    64 1   
    58    24    25 1   
    59    24    65 1   
    60    24    66 1   
    61    25    26 1   
    62    25    27 1   
    63    25    67 1   
    64    26    68 1   
    65    26    69 1   
    66    26    70 1   
    67    27    28 2   
    68    27    29 1   
    69    29    30 1   
    70    29    71 1   
    71    30    31 1   
    72    30    72 1   
    73    30    73 1   
    74    31    32 1   
    75    31    74 1   
    76    31    75 1   
    77    32    33 1   
    78    32    76 1   
    79    32    77 1   
    80    33    78 1   
    81    33    79 1   
    82    33    80 1   
@<TRIPOS>SUBSTRUCTURE
     1 C61         1 TEMP              0 ****  ****    0 ROOT
