@<TRIPOS>MOLECULE
C61
   82    82     1     0     0
SMALL
bcc


@<TRIPOS>ATOM
      1 C2          -9.4170     2.6760    -2.8200 c3         1 C61       0.123700
      2 O3          -8.9480     1.4230    -2.3920 os         1 C61      -0.403600
      3 C4          -7.5730     1.4340    -2.1050 c3         1 C61       0.137400
      4 C5          -7.1540     0.0520    -1.6430 c3         1 C61      -0.085400
      5 C6          -5.6650     0.0080    -1.3610 c3         1 C61       0.140400
      6 O7          -5.3500    -1.2870    -0.8870 os         1 C61      -0.303900
      7 C9          -4.7770    -4.8690     0.7680 c3         1 C61       0.122700
      8 C10         -3.0090    -0.6830    -0.7170 ca         1 C61      -0.186000
      9 C11         -4.0740    -1.5520    -0.5400 ca         1 C61       0.116100
     10 C12         -3.8530    -2.8160     0.0400 ca         1 C61       0.106100
     11 C13         -2.5670    -3.1650     0.4170 ca         1 C61      -0.184000
     12 C14         -1.5080    -2.2780     0.2340 ca         1 C61      -0.128000
     13 C15         -1.7130    -1.0280    -0.3240 ca         1 C61      -0.066300
     14 C16         -0.5720    -0.0660    -0.5090 c3         1 C61      -0.025100
     15 C17          0.1070     0.4410     0.7770 c3         1 C61      -0.042700
     16 C18         -0.7930     1.2820     1.7020 c3         1 C61      -0.056700
     17 C19         -1.4900     2.4310     0.9820 c3         1 C61      -0.081600
     18 C20         -1.7980     0.4520     2.4980 c3         1 C61      -0.081600
     19 C21          1.4000     1.1630     0.3650 c3         1 C61      -0.065400
     20 C22          2.2950     1.6350     1.5180 c3         1 C61       0.143500
     21 N23          1.9190     2.9830     1.9190 n8         1 C61      -0.902800
     22 C24          3.7840     1.4650     1.1560 c3         1 C61       0.094100
     23 O25          4.1400     2.2310     0.0200 oh         1 C61      -0.600800
     24 C26          4.7000     1.7480     2.3450 c3         1 C61      -0.107400
     25 C27          6.2020     1.6600     2.0470 c3         1 C61      -0.132700
     26 C28          7.0170     1.9580     3.2990 c3         1 C61      -0.080100
     27 C29          6.5480     0.2850     1.4990 c          1 C61       0.663100
     28 O30          6.6940    -0.6890     2.2280 o          1 C61      -0.610100
     29 N31          6.6740     0.2120     0.1650 ns         1 C61      -0.568900
     30 C32          6.9120    -1.0300    -0.5420 c3         1 C61       0.103000
     31 C33          7.2310    -0.7610    -2.0040 c3         1 C61      -0.095400
     32 C34          7.5110    -2.0430    -2.7770 c3         1 C61      -0.073400
     33 C35          7.8220    -1.7820    -4.2440 c3         1 C61      -0.089100
     34 H2C1        -8.9080     3.0160    -3.7300 h1         1 C61       0.028700
     35 H2C2       -10.4810     2.5850    -3.0350 h1         1 C61       0.028700
     36 H2C3        -9.2830     3.4490    -2.0530 h1         1 C61       0.028700
     37 H4C1        -6.9950     1.7280    -2.9940 h1         1 C61       0.018700
     38 H4C2        -7.3460     2.1760    -1.3260 h1         1 C61       0.018700
     39 H5C1        -7.7060    -0.2160    -0.7380 hc         1 C61       0.070200
     40 H5C2        -7.4010    -0.6830    -2.4130 hc         1 C61       0.070200
     41 H6C1        -5.1020     0.2360    -2.2740 h1         1 C61       0.030200
     42 H6C2        -5.3940     0.7630    -0.6130 h1         1 C61       0.030200
     43 H9C1        -4.1080    -5.5070     0.1840 h1         1 C61       0.038033
     44 H9C2        -4.3890    -4.7990     1.7880 h1         1 C61       0.038033
     45 H9C3        -5.7610    -5.3290     0.7990 h1         1 C61       0.038033
     46 H13         -2.3640    -4.1320     0.8590 ha         1 C61       0.136000
     47 H14         -0.5150    -2.5800     0.5420 ha         1 C61       0.130000
     48 H161         0.1960    -0.5600    -1.1130 hc         1 C61       0.043700
     49 H162        -0.9080     0.7880    -1.1040 hc         1 C61       0.043700
     50 H17          0.4190    -0.4420     1.3510 hc         1 C61       0.042700
     51 H18         -0.1240     1.7410     2.4340 hc         1 C61       0.062700
     52 H211         1.9670     0.4650    -0.2590 hc         1 C61       0.045200
     53 H212         1.1670     2.0100    -0.2900 hc         1 C61       0.045200
     54 H191        -2.2510     2.0760     0.2840 hc         1 C61       0.029867
     55 H192        -1.9940     3.0820     1.7000 hc         1 C61       0.029867
     56 H193        -0.7860     3.0490     0.4240 hc         1 C61       0.029867
     57 H201        -1.3080    -0.3810     3.0070 hc         1 C61       0.029867
     58 H202        -2.2730     1.0690     3.2640 hc         1 C61       0.029867
     59 H203        -2.5890     0.0360     1.8740 hc         1 C61       0.029867
     60 H22          2.1180     0.9780     2.3790 h1         1 C61       0.069700
     61 H231         2.4900     3.3180     2.6850 hn         1 C61       0.343800
     62 H232         2.0320     3.6340     1.1520 hn         1 C61       0.343800
     63 H24          3.9180     0.4200     0.8530 h1         1 C61       0.085700
     64 H25          4.0990     3.1640     0.2570 ho         1 C61       0.395000
     65 H261         4.5060     2.7530     2.7340 hc         1 C61       0.053700
     66 H262         4.4470     1.0520     3.1520 hc         1 C61       0.053700
     67 H27          6.4430     2.4150     1.2930 hc         1 C61       0.054700
     68 H281         6.7760     2.9520     3.6780 hc         1 C61       0.043700
     69 H282         6.8060     1.2390     4.0900 hc         1 C61       0.043700
     70 H283         8.0880     1.9330     3.0960 hc         1 C61       0.043700
     71 H31          6.4140     1.0200    -0.3790 hn         1 C61       0.320500
     72 H321         7.7470    -1.5530    -0.0710 h1         1 C61       0.049200
     73 H322         6.0410    -1.6900    -0.4660 h1         1 C61       0.049200
     74 H331         6.3930    -0.2300    -2.4700 hc         1 C61       0.044200
     75 H332         8.0980    -0.0970    -2.0700 hc         1 C61       0.044200
     76 H341         8.3500    -2.5700    -2.3130 hc         1 C61       0.041200
     77 H342         6.6490    -2.7120    -2.6970 hc         1 C61       0.041200
     78 H351         6.9790    -1.3070    -4.7490 hc         1 C61       0.033033
     79 H352         8.6850    -1.1230    -4.3530 hc         1 C61       0.033033
     80 H353         8.0450    -2.7080    -4.7750 hc         1 C61       0.033033
     81 H10         -3.1720     0.2930    -1.1580 ha         1 C61       0.134000
     82 O8          -4.9450    -3.5980     0.1780 os         1 C61      -0.297900
@<TRIPOS>BOND
     1     1     2 1   
     2     1    34 1   
     3     1    35 1   
     4     1    36 1   
     5     2     3 1   
     6     3     4 1   
     7     3    37 1   
     8     3    38 1   
     9     4     5 1   
    10     4    39 1   
    11     4    40 1   
    12     5     6 1   
    13     5    41 1   
    14     5    42 1   
    15     6     9 1   
    16     7    43 1   
    17     7    44 1   
    18     7    45 1   
    19     7    82 1   
    20     8     9 ar  
    21     8    13 ar  
    22     8    81 1   
    23     9    10 ar  
    24    10    11 ar  
    25    10    82 1   
    26    11    12 ar  
    27    11    46 1   
    28    12    13 ar  
    29    12    47 1   
    30    13    14 1   
    31    14    15 1   
    32    14    48 1   
    33    14    49 1   
    34    15    16 1   
    35    15    19 1   
    36    15    50 1   
    37    16    17 1   
    38    16    18 1   
    39    16    51 1   
    40    17    54 1   
    41    17    55 1   
    42    17    56 1   
    43    18    57 1   
    44    18    58 1   
    45    18    59 1   
    46    19    20 1   
    47    19    52 1   
    48    19    53 1   
    49    20    21 1   
    50    20    22 1   
    51    20    60 1   
    52    21    61 1   
    53    21    62 1   
    54    22    23 1   
    55    22    24 1   
    56    22    63 1   
    57    23    64 1   
    58    24    25 1   
    59    24    65 1   
    60    24    66 1   
    61    25    26 1   
    62    25    27 1   
    63    25    67 1   
    64    26    68 1   
    65    26    69 1   
    66    26    70 1   
    67    27    28 2   
    68    27    29 1   
    69    29    30 1   
    70    29    71 1   
    71    30    31 1   
    72    30    72 1   
    73    30    73 1   
    74    31    32 1   
    75    31    74 1   
    76    31    75 1   
    77    32    33 1   
    78    32    76 1   
    79    32    77 1   
    80    33    78 1   
    81    33    79 1   
    82    33    80 1   
@<TRIPOS>SUBSTRUCTURE
     1 C61         1 TEMP              0 ****  ****    0 ROOT
