@<TRIPOS>MOLECULE
C62
   33    35     1     0     0
SMALL
bcc


@<TRIPOS>ATOM
      1 O4           5.0640    -2.1300     0.8200 o          1 C62      -0.612800
      2 S2           5.2160    -0.8890     0.0760 sy         1 C62       1.272200
      3 O3           6.2290     0.0640     0.5080 o          1 C62      -0.612800
      4 N6           5.3810    -1.3270    -1.5060 n8         1 C62      -0.896700
      5 C16          3.6640    -0.0410     0.0410 ca         1 C62      -0.262500
      6 C15          2.4930    -0.7840    -0.0290 ca         1 C62      -0.028000
      7 C14          1.2740    -0.1350    -0.0400 ca         1 C62      -0.127000
      8 C13          1.2140     1.2620     0.0170 ca         1 C62      -0.076500
      9 C18          2.4040     1.9900     0.0860 ca         1 C62      -0.127000
     10 C17          3.6270     1.3450     0.1010 ca         1 C62      -0.028000
     11 C4          -0.0550     1.9590     0.0090 cc         1 C62       0.315200
     12 O2          -1.1770     1.2170    -0.0000 os         1 C62      -0.308800
     13 C3          -0.3860     3.2880     0.0070 cd         1 C62      -0.250300
     14 C2          -1.7940     3.3490    -0.0030 cd         1 C62      -0.209300
     15 C1          -2.2380     2.0540    -0.0060 cc         1 C62       0.257500
     16 C6          -3.5480     1.5070    -0.0100 ce         1 C62      -0.090800
     17 C7          -3.8750     0.2030    -0.0050 cd         1 C62      -0.118600
     18 S1          -2.7830    -1.1680     0.0040 ss         1 C62      -0.147200
     19 C9          -4.1440    -2.3090     0.0060 c          1 C62       0.730100
     20 N2          -5.3250    -1.6190    -0.0000 ns         1 C62      -0.613500
     21 C8          -5.2820    -0.2440    -0.0060 c          1 C62       0.728700
     22 O1          -6.2570     0.4700    -0.0120 o          1 C62      -0.564500
     23 O5          -4.0150    -3.5020     0.0140 o          1 C62      -0.538500
     24 H6N1         5.6730    -0.5580    -2.1010 hn         1 C62       0.420300
     25 H6N2         6.0110    -2.1160    -1.6120 hn         1 C62       0.420300
     26 H17          4.5360     1.9270     0.1650 ha         1 C62       0.158500
     27 H15          2.5200    -1.8650    -0.0720 ha         1 C62       0.158500
     28 H18          2.3840     3.0700     0.1340 ha         1 C62       0.147500
     29 H14          0.3720    -0.7300    -0.0930 ha         1 C62       0.147500
     30 H3           0.2970     4.1210     0.0100 ha         1 C62       0.168000
     31 H2          -2.4140     4.2310    -0.0070 ha         1 C62       0.169000
     32 H6C1        -4.3550     2.2290    -0.0140 ha         1 C62       0.169000
     33 HA          -6.2060    -2.1180    -0.0010 hn         1 C62       0.353500
@<TRIPOS>BOND
     1     1     2 2   
     2     2     3 2   
     3     2     4 1   
     4     2     5 1   
     5     4    24 1   
     6     4    25 1   
     7     5     6 ar  
     8     5    10 ar  
     9     6     7 ar  
    10     6    27 1   
    11     7     8 ar  
    12     7    29 1   
    13     8     9 ar  
    14     8    11 1   
    15     9    10 ar  
    16     9    28 1   
    17    10    26 1   
    18    11    12 1   
    19    11    13 2   
    20    12    15 1   
    21    13    14 1   
    22    13    30 1   
    23    14    15 2   
    24    14    31 1   
    25    15    16 1   
    26    16    17 2   
    27    16    32 1   
    28    17    18 1   
    29    17    21 1   
    30    18    19 1   
    31    19    20 1   
    32    19    23 2   
    33    20    21 1   
    34    20    33 1   
    35    21    22 2   
@<TRIPOS>SUBSTRUCTURE
     1 C62         1 TEMP              0 ****  ****    0 ROOT
