@<TRIPOS>MOLECULE
C62
   33    35     1     0     0
SMALL
No Charge or Current Charge


@<TRIPOS>ATOM
      1 O4           5.4400    -2.1260     0.4990 o          1 C62      -0.542000
      2 S2           5.4990    -0.7500     0.0120 sy         1 C62       1.130600
      3 O3           6.5110     0.1980     0.4730 o          1 C62      -0.542000
      4 N6           5.8310    -0.9200    -1.5750 n8         1 C62      -1.007100
      5 C16          3.8670     0.0020     0.0100 ca         1 C62      -0.262500
      6 C15          2.7140    -0.8060     0.0200 ca         1 C62      -0.010000
      7 C14          1.4390    -0.2140     0.0180 ca         1 C62      -0.109000
      8 C13          1.2910     1.1900     0.0040 ca         1 C62      -0.076500
      9 C18          2.4550     1.9910    -0.0090 ca         1 C62      -0.109000
     10 C17          3.7320     1.4040    -0.0070 ca         1 C62      -0.010000
     11 C4          -0.0550     1.7800     0.0030 cc         1 C62       0.205500
     12 O2          -1.1960     1.0160     0.0090 os         1 C62      -0.220000
     13 C3          -0.3600     3.1130    -0.0040 cd         1 C62      -0.167000
     14 C2          -1.7700     3.1830    -0.0020 cd         1 C62      -0.126000
     15 C1          -2.2540     1.8990     0.0060 cc         1 C62       0.147800
     16 C6          -3.6310     1.4170     0.0110 ce         1 C62      -0.140800
     17 C7          -4.2020     0.1580     0.0190 cd         1 C62      -0.118600
     18 S1          -3.2430    -1.3280     0.0260 ss         1 C62      -0.147200
     19 C9          -4.7490    -2.3420     0.0350 c          1 C62       0.587600
     20 N2          -5.8050    -1.4840     0.0310 ns         1 C62      -0.479500
     21 C8          -5.6520    -0.1350     0.0230 c          1 C62       0.586200
     22 O1          -6.5720     0.6660     0.0200 o          1 C62      -0.489000
     23 O5          -4.8270    -3.5590     0.0420 o          1 C62      -0.463000
     24 H6N1         6.7430    -0.4710    -1.6200 hn         1 C62       0.475500
     25 H6N2         6.0780    -1.9070    -1.6040 hn         1 C62       0.475500
     26 H17          4.6130     2.0440    -0.0200 ha         1 C62       0.140500
     27 H15          2.7990    -1.8920     0.0290 ha         1 C62       0.140500
     28 H18          2.3840     3.0750    -0.0220 ha         1 C62       0.129500
     29 H14          0.5620    -0.8580     0.0270 ha         1 C62       0.129500
     30 H3           0.3290     3.9500    -0.0100 ha         1 C62       0.150000
     31 H2          -2.3700     4.0880    -0.0060 ha         1 C62       0.151000
     32 H6C1        -4.3570     2.2320     0.0080 ha         1 C62       0.219000
     33 HA          -6.7380    -1.8650     0.0350 hn         1 C62       0.353500
@<TRIPOS>BOND
     1     1     2 2   
     2     2     3 2   
     3     2     4 1   
     4     2     5 1   
     5     4    24 1   
     6     4    25 1   
     7     5     6 ar  
     8     5    10 ar  
     9     6     7 ar  
    10     6    27 1   
    11     7     8 ar  
    12     7    29 1   
    13     8     9 ar  
    14     8    11 1   
    15     9    10 ar  
    16     9    28 1   
    17    10    26 1   
    18    11    12 1   
    19    11    13 2   
    20    12    15 1   
    21    13    14 1   
    22    13    30 1   
    23    14    15 2   
    24    14    31 1   
    25    15    16 1   
    26    16    17 2   
    27    16    32 1   
    28    17    18 1   
    29    17    21 1   
    30    18    19 1   
    31    19    20 1   
    32    19    23 2   
    33    20    21 1   
    34    20    33 1   
    35    21    22 2   
@<TRIPOS>SUBSTRUCTURE
     1 C62         1 TEMP              0 ****  ****    0 ROOT
