@<TRIPOS>MOLECULE
C63
   68    67     1     0     0
SMALL
No Charge or Current Charge


@<TRIPOS>ATOM
      1 P5           3.1680    -1.0820     0.9050 p5         1 C63       1.401400
      2 O11          3.2920    -0.2750     2.1560 o          1 C63      -0.829000
      3 C6           4.0320    -0.2370    -0.4780 c3         1 C63      -0.426400
      4 C7           5.5530    -0.0480    -0.2740 c3         1 C63      -0.044400
      5 C8           6.2330     0.6690    -1.4610 c3         1 C63      -0.073400
      6 C9           7.7520     0.8610    -1.2630 c3         1 C63      -0.078400
      7 C10          8.4300     1.5770    -2.4470 c3         1 C63      -0.085100
      8 O4           1.6760    -1.0350     0.3020 os         1 C63      -0.602400
      9 C3           0.6010    -1.5710     1.0870 c3         1 C63       0.213600
     10 C2          -0.7620    -1.0920     0.5020 c3         1 C63       0.169300
     11 O13         -1.0720     0.2560     0.9550 os         1 C63      -0.452000
     12 C14         -0.2230     1.3100     0.4650 c3         1 C63       0.179600
     13 C15         -0.8550     2.6500     0.8860 c3         1 C63      -0.080400
     14 C16         -0.0360     3.8730     0.4180 c3         1 C63      -0.073400
     15 C17         -0.6660     5.2200     0.8380 c3         1 C63      -0.075400
     16 C1          -1.9210    -2.0140     0.9640 c3         1 C63       0.144600
     17 O20         -3.1060    -1.7010     0.2040 os         1 C63      -0.456000
     18 C21         -4.2590    -2.4820     0.5520 c3         1 C63       0.166600
     19 C22         -5.4260    -2.0220    -0.3430 c3         1 C63      -0.079400
     20 C23         -6.7360    -2.7910    -0.0650 c3         1 C63      -0.074400
     21 C24         -7.9080    -2.3320    -0.9610 c3         1 C63      -0.075400
     22 C25         -9.2180    -3.1010    -0.6820 c3         1 C63      -0.075400
     23 C26        -10.3880    -2.6440    -1.5750 c3         1 C63      -0.088100
     24 H2           3.8420    -0.8290    -1.3800 hc         1 C63       0.044700
     25 H3           3.5450     0.7360    -0.6070 hc         1 C63       0.044700
     26 H4           5.7270     0.5290     0.6430 hc         1 C63       0.042700
     27 H5           6.0240    -1.0290    -0.1280 hc         1 C63       0.042700
     28 H6           6.0600     0.0910    -2.3780 hc         1 C63       0.026700
     29 H7           5.7620     1.6490    -1.6070 hc         1 C63       0.026700
     30 H8           7.9290     1.4400    -0.3480 hc         1 C63       0.034700
     31 H9           8.2270    -0.1180    -1.1190 hc         1 C63       0.034700
     32 H10          8.3010     1.0030    -3.3730 hc         1 C63       0.020367
     33 H11          8.0000     2.5750    -2.5940 hc         1 C63       0.020367
     34 H12          9.5050     1.6900    -2.2600 hc         1 C63       0.020367
     35 H13          0.6390    -2.6680     1.0580 h1         1 C63       0.028200
     36 H14          0.6750    -1.2590     2.1370 h1         1 C63       0.028200
     37 H15         -0.7100    -1.1350    -0.5940 h1         1 C63       0.048700
     38 H16          0.7830     1.2420     0.8970 h1         1 C63       0.021700
     39 H17         -0.1430     1.2700    -0.6300 h1         1 C63       0.021700
     40 H18         -1.8690     2.7130     0.4710 hc         1 C63       0.050200
     41 H19         -0.9490     2.6730     1.9780 hc         1 C63       0.050200
     42 H20          0.9790     3.8060     0.8310 hc         1 C63       0.034700
     43 H21          0.0600     3.8450    -0.6740 hc         1 C63       0.034700
     44 H22         -1.6800     5.2870     0.4250 hc         1 C63       0.037200
     45 H23         -0.7620     5.2480     1.9310 hc         1 C63       0.037200
     46 H25         -1.6370    -3.0610     0.7980 h1         1 C63       0.027200
     47 H26         -2.0960    -1.8750     2.0390 h1         1 C63       0.027200
     48 H27         -4.0670    -3.5510     0.3880 h1         1 C63       0.014200
     49 H28         -4.5240    -2.3330     1.6080 h1         1 C63       0.014200
     50 H29         -5.5950    -0.9500    -0.1860 hc         1 C63       0.050200
     51 H30         -5.1430    -2.1560    -1.3940 hc         1 C63       0.050200
     52 H31         -6.5640    -3.8640    -0.2180 hc         1 C63       0.035700
     53 H32         -7.0140    -2.6580     0.9880 hc         1 C63       0.035700
     54 H33         -8.0810    -1.2600    -0.8070 hc         1 C63       0.037700
     55 H34         -7.6300    -2.4650    -2.0140 hc         1 C63       0.037700
     56 H35         -9.0510    -4.1740    -0.8370 hc         1 C63       0.035200
     57 H36         -9.5010    -2.9690     0.3700 hc         1 C63       0.035200
     58 H37        -10.6040    -1.5800    -1.4180 hc         1 C63       0.028700
     59 H38        -10.1490    -2.7960    -2.6350 hc         1 C63       0.028700
     60 H39        -11.2930    -3.2160    -1.3420 hc         1 C63       0.028700
     61 O12          3.6650    -2.4830     1.0490 o          1 C63      -0.829000
     62 C18          0.1530     6.4420     0.3700 c3         1 C63      -0.075400
     63 C19         -0.4740     7.7860     0.7880 c3         1 C63      -0.087100
     64 H24          1.1680     6.3790     0.7820 hc         1 C63       0.034700
     65 H40          0.2500     6.4190    -0.7230 hc         1 C63       0.034700
     66 H41         -1.4790     7.8940     0.3610 hc         1 C63       0.027033
     67 H42         -0.5520     7.8540     1.8800 hc         1 C63       0.027033
     68 H43          0.1410     8.6210     0.4340 hc         1 C63       0.027033
@<TRIPOS>BOND
     1     1     2 1   
     2     1     3 1   
     3     1     8 1   
     4     1    61 1   
     5     3     4 1   
     6     3    24 1   
     7     3    25 1   
     8     4     5 1   
     9     4    26 1   
    10     4    27 1   
    11     5     6 1   
    12     5    28 1   
    13     5    29 1   
    14     6     7 1   
    15     6    30 1   
    16     6    31 1   
    17     7    32 1   
    18     7    33 1   
    19     7    34 1   
    20     8     9 1   
    21     9    10 1   
    22     9    35 1   
    23     9    36 1   
    24    10    11 1   
    25    10    16 1   
    26    10    37 1   
    27    11    12 1   
    28    12    13 1   
    29    12    38 1   
    30    12    39 1   
    31    13    14 1   
    32    13    40 1   
    33    13    41 1   
    34    14    15 1   
    35    14    42 1   
    36    14    43 1   
    37    15    44 1   
    38    15    45 1   
    39    15    62 1   
    40    16    17 1   
    41    16    46 1   
    42    16    47 1   
    43    17    18 1   
    44    18    19 1   
    45    18    48 1   
    46    18    49 1   
    47    19    20 1   
    48    19    50 1   
    49    19    51 1   
    50    20    21 1   
    51    20    52 1   
    52    20    53 1   
    53    21    22 1   
    54    21    54 1   
    55    21    55 1   
    56    22    23 1   
    57    22    56 1   
    58    22    57 1   
    59    23    58 1   
    60    23    59 1   
    61    23    60 1   
    62    62    63 1   
    63    62    64 1   
    64    62    65 1   
    65    63    66 1   
    66    63    67 1   
    67    63    68 1   
@<TRIPOS>SUBSTRUCTURE
     1 C63         1 TEMP              0 ****  ****    0 ROOT
