@<TRIPOS>MOLECULE
C63
   68    67     1     0     0
SMALL
abcg2


@<TRIPOS>ATOM
      1 P5           3.3640    -1.3950     0.6790 p5         1 C63       1.401400
      2 O11          3.4080    -1.0910     2.1550 o          1 C63      -0.829000
      3 C6           4.2620    -0.1140    -0.2590 c3         1 C63      -0.426400
      4 C7           5.7610    -0.1670     0.0280 c3         1 C63      -0.044400
      5 C8           6.5580     0.8740    -0.7480 c3         1 C63      -0.073400
      6 C9           8.0550     0.8070    -0.4730 c3         1 C63      -0.078400
      7 C10          8.8500     1.8420    -1.2560 c3         1 C63      -0.085100
      8 O4           1.8410    -1.0730     0.1020 os         1 C63      -0.602400
      9 C3           0.7870    -1.8960     0.5430 c3         1 C63       0.213600
     10 C2          -0.5290    -1.2970     0.0780 c3         1 C63       0.169300
     11 O13         -0.7230    -0.0360     0.6790 os         1 C63      -0.452000
     12 C14         -0.6750     1.0680    -0.1930 c3         1 C63       0.179600
     13 C15         -0.8450     2.3400     0.6120 c3         1 C63      -0.080400
     14 C16         -0.8140     3.5820    -0.2710 c3         1 C63      -0.073400
     15 C17         -0.9710     4.8750     0.5210 c3         1 C63      -0.075400
     16 C1          -1.6910    -2.2000     0.4440 c3         1 C63       0.144600
     17 O20         -2.8620    -1.6880    -0.1330 os         1 C63      -0.456000
     18 C21         -4.0210    -2.3750     0.2740 c3         1 C63       0.166600
     19 C22         -5.2330    -1.7770    -0.4100 c3         1 C63      -0.079400
     20 C23         -6.5270    -2.4380     0.0500 c3         1 C63      -0.074400
     21 C24         -7.7630    -1.8680    -0.6340 c3         1 C63      -0.075400
     22 C25         -9.0610    -2.5020    -0.1500 c3         1 C63      -0.075400
     23 C26        -10.2930    -1.9260    -0.8340 c3         1 C63      -0.088100
     24 H2           4.0870    -0.2560    -1.3300 hc         1 C63       0.044700
     25 H3           3.8680     0.8730    -0.0030 hc         1 C63       0.044700
     26 H4           5.9310    -0.0280     1.1000 hc         1 C63       0.042700
     27 H5           6.1390    -1.1650    -0.2150 hc         1 C63       0.042700
     28 H6           6.3800     0.7400    -1.8210 hc         1 C63       0.026700
     29 H7           6.1870     1.8750    -0.5010 hc         1 C63       0.026700
     30 H8           8.2320     0.9430     0.5990 hc         1 C63       0.034700
     31 H9           8.4220    -0.1960    -0.7150 hc         1 C63       0.034700
     32 H10          8.7090     1.7180    -2.3310 hc         1 C63       0.020367
     33 H11          8.5380     2.8560    -0.9990 hc         1 C63       0.020367
     34 H12          9.9190     1.7660    -1.0530 hc         1 C63       0.020367
     35 H13          0.8850    -2.9120     0.1410 h1         1 C63       0.028200
     36 H14          0.7790    -1.9820     1.6370 h1         1 C63       0.028200
     37 H15         -0.4980    -1.2050    -1.0170 h1         1 C63       0.048700
     38 H16          0.2790     1.1000    -0.7340 h1         1 C63       0.021700
     39 H17         -1.4700     0.9990    -0.9490 h1         1 C63       0.021700
     40 H18         -1.7920     2.3040     1.1590 hc         1 C63       0.050200
     41 H19         -0.0490     2.4050     1.3600 hc         1 C63       0.050200
     42 H20          0.1280     3.6110    -0.8290 hc         1 C63       0.034700
     43 H21         -1.6100     3.5180    -1.0210 hc         1 C63       0.034700
     44 H22         -1.9110     4.8450     1.0830 hc         1 C63       0.037200
     45 H23         -0.1730     4.9420     1.2690 hc         1 C63       0.037200
     46 H25         -1.4930    -3.2230     0.0910 h1         1 C63       0.027200
     47 H26         -1.7850    -2.2560     1.5390 h1         1 C63       0.027200
     48 H27         -3.9430    -3.4460     0.0310 h1         1 C63       0.014200
     49 H28         -4.1380    -2.3110     1.3670 h1         1 C63       0.014200
     50 H29         -5.2760    -0.7040    -0.1990 hc         1 C63       0.050200
     51 H30         -5.1310    -1.8820    -1.4940 hc         1 C63       0.050200
     52 H31         -6.4760    -3.5170    -0.1360 hc         1 C63       0.035700
     53 H32         -6.6280    -2.3230     1.1350 hc         1 C63       0.035700
     54 H33         -7.8040    -0.7860    -0.4660 hc         1 C63       0.037700
     55 H34         -7.6750    -2.0020    -1.7170 hc         1 C63       0.037700
     56 H35         -9.0200    -3.5830    -0.3160 hc         1 C63       0.035200
     57 H36         -9.1460    -2.3660     0.9330 hc         1 C63       0.035200
     58 H37        -10.3740    -0.8510    -0.6620 hc         1 C63       0.028700
     59 H38        -10.2540    -2.0830    -1.9140 hc         1 C63       0.028700
     60 H39        -11.2100    -2.3900    -0.4670 hc         1 C63       0.028700
     61 O12          3.7750    -2.7700     0.2150 o          1 C63      -0.829000
     62 C18         -0.9460     6.1230    -0.3530 c3         1 C63      -0.075400
     63 C19         -1.1070     7.4060     0.4500 c3         1 C63      -0.087100
     64 H24         -0.0060     6.1530    -0.9130 hc         1 C63       0.034700
     65 H40         -1.7420     6.0550    -1.1010 hc         1 C63       0.034700
     66 H41         -2.0540     7.4140     0.9920 hc         1 C63       0.027033
     67 H42         -0.3070     7.5130     1.1860 hc         1 C63       0.027033
     68 H43         -1.0860     8.2880    -0.1910 hc         1 C63       0.027033
@<TRIPOS>BOND
     1     1     2 1   
     2     1     3 1   
     3     1     8 1   
     4     1    61 1   
     5     3     4 1   
     6     3    24 1   
     7     3    25 1   
     8     4     5 1   
     9     4    26 1   
    10     4    27 1   
    11     5     6 1   
    12     5    28 1   
    13     5    29 1   
    14     6     7 1   
    15     6    30 1   
    16     6    31 1   
    17     7    32 1   
    18     7    33 1   
    19     7    34 1   
    20     8     9 1   
    21     9    10 1   
    22     9    35 1   
    23     9    36 1   
    24    10    11 1   
    25    10    16 1   
    26    10    37 1   
    27    11    12 1   
    28    12    13 1   
    29    12    38 1   
    30    12    39 1   
    31    13    14 1   
    32    13    40 1   
    33    13    41 1   
    34    14    15 1   
    35    14    42 1   
    36    14    43 1   
    37    15    44 1   
    38    15    45 1   
    39    15    62 1   
    40    16    17 1   
    41    16    46 1   
    42    16    47 1   
    43    17    18 1   
    44    18    19 1   
    45    18    48 1   
    46    18    49 1   
    47    19    20 1   
    48    19    50 1   
    49    19    51 1   
    50    20    21 1   
    51    20    52 1   
    52    20    53 1   
    53    21    22 1   
    54    21    54 1   
    55    21    55 1   
    56    22    23 1   
    57    22    56 1   
    58    22    57 1   
    59    23    58 1   
    60    23    59 1   
    61    23    60 1   
    62    62    63 1   
    63    62    64 1   
    64    62    65 1   
    65    63    66 1   
    66    63    67 1   
    67    63    68 1   
@<TRIPOS>SUBSTRUCTURE
     1 C63         1 TEMP              0 ****  ****    0 ROOT
