@<TRIPOS>MOLECULE
C64
   38    41     1     0     0
SMALL
No Charge or Current Charge


@<TRIPOS>ATOM
      1 O            0.1930     1.1220     0.5070 o          1 C64      -0.553100
      2 S            3.8480    -2.6010     1.3040 ss         1 C64       0.106600
      3 Br          -6.5590    -1.4540     0.1160 br         1 C64      -0.098100
      4 C1           3.3960     3.3140    -0.9980 ca         1 C64      -0.114000
      5 N1           2.8020     0.8920    -0.6600 na         1 C64      -0.141600
      6 C2          -2.5830    -0.1260     0.3870 ca         1 C64      -0.153000
      7 N2           1.9100    -1.9700    -0.3550 nc         1 C64      -0.664000
      8 C3           4.3310     4.3030    -0.6310 ca         1 C64      -0.089000
      9 N3           4.5400     0.3860     0.7870 nc         1 C64      -0.569100
     10 C4          -2.1010    -0.2450    -0.9360 ca         1 C64      -0.003000
     11 N4          -0.7750     0.0910    -1.3240 ns         1 C64      -0.140000
     12 C5          -3.9070    -0.4850     0.6970 ca         1 C64      -0.055500
     13 C6           3.4450    -0.0860     0.1430 cd         1 C64       0.380800
     14 C7           2.6640    -3.8100     0.8440 cd         1 C64      -0.292000
     15 C8           2.9810    -1.4650     0.2690 cd         1 C64       0.396100
     16 C9           5.5230     2.6790     0.7620 ca         1 C64      -0.046000
     17 C10          3.5580     2.0210    -0.4680 ca         1 C64      -0.067200
     18 C11          4.5820     1.7090     0.3850 ca         1 C64       0.078400
     19 C12         -2.9660    -0.7370    -1.9340 ca         1 C64      -0.153000
     20 C13          0.2720     0.7020    -0.6430 c          1 C64       0.603100
     21 C14          5.3920     3.9860     0.2460 ca         1 C64      -0.132000
     22 C15          1.7410    -3.2900    -0.0240 cc         1 C64       0.280900
     23 C16         -4.2900    -1.0950    -1.6250 ca         1 C64      -0.055500
     24 C17          1.5620     0.8220    -1.4740 c3         1 C64       0.000600
     25 C18         -4.7590    -0.9670    -0.3090 ca         1 C64      -0.048900
     26 H1           2.5790     3.5590    -1.6720 ha         1 C64       0.116000
     27 H2          -1.9490     0.2330     1.1920 ha         1 C64       0.132500
     28 H3           4.2340     5.3130    -1.0240 ha         1 C64       0.114000
     29 HN4         -0.5490    -0.1780    -2.2730 hn         1 C64       0.152000
     30 H5          -4.2700    -0.3900     1.7190 ha         1 C64       0.130000
     31 H7           2.7180    -4.8180     1.2330 h4         1 C64       0.164000
     32 H9           6.3350     2.4270     1.4390 ha         1 C64       0.130000
     33 H12         -2.6130    -0.8410    -2.9580 ha         1 C64       0.132500
     34 H14          6.1110     4.7530     0.5270 ha         1 C64       0.116000
     35 H15          0.9060    -3.8240    -0.4600 h4         1 C64       0.042100
     36 H16         -4.9490    -1.4710    -2.4050 ha         1 C64       0.130000
     37 H17          1.4660     1.7090    -2.1080 h1         1 C64       0.083200
     38 H17A         1.6270    -0.0450    -2.1420 h1         1 C64       0.083200
@<TRIPOS>BOND
     1     1    20 2   
     2     2    14 1   
     3     2    15 1   
     4     3    25 1   
     5     4     8 ar  
     6     4    17 ar  
     7     4    26 1   
     8     5    13 1   
     9     5    17 1   
    10     5    24 1   
    11     6    10 ar  
    12     6    12 ar  
    13     6    27 1   
    14     7    15 2   
    15     7    22 1   
    16     8    21 ar  
    17     8    28 1   
    18     9    13 2   
    19     9    18 1   
    20    10    11 1   
    21    10    19 ar  
    22    11    20 1   
    23    11    29 1   
    24    12    25 ar  
    25    12    30 1   
    26    13    15 1   
    27    14    22 2   
    28    14    31 1   
    29    16    18 ar  
    30    16    21 ar  
    31    16    32 1   
    32    17    18 ar  
    33    19    23 ar  
    34    19    33 1   
    35    20    24 1   
    36    21    34 1   
    37    22    35 1   
    38    23    25 ar  
    39    23    36 1   
    40    24    37 1   
    41    24    38 1   
@<TRIPOS>SUBSTRUCTURE
     1 C64         1 TEMP              0 ****  ****    0 ROOT
