@<TRIPOS>MOLECULE
C64
   38    41     1     0     0
SMALL
abcg2


@<TRIPOS>ATOM
      1 O            0.3600     0.7810     0.4980 o          1 C64      -0.553100
      2 S            3.8540    -2.5640     1.2150 ss         1 C64       0.106600
      3 BR          -6.4570    -1.0450     0.2210 br         1 C64      -0.098100
      4 C1           3.2520     3.2730    -1.0240 ca         1 C64      -0.114000
      5 N1           2.7790     0.8110    -0.7190 na         1 C64      -0.141600
      6 C2          -2.4580     0.0440     0.3600 ca         1 C64      -0.153000
      7 N2           1.9660    -2.0350    -0.4230 nc         1 C64      -0.664000
      8 C3           4.1200     4.2530    -0.5800 ca         1 C64      -0.089000
      9 N3           4.3720     0.3810     0.7830 nc         1 C64      -0.569100
     10 C4          -2.0030    -0.2260    -0.9310 ca         1 C64      -0.003000
     11 N4          -0.6940    -0.0090    -1.3650 ns         1 C64      -0.140000
     12 C5          -3.7830    -0.2010     0.6940 ca         1 C64      -0.055500
     13 C6           3.3790    -0.1080     0.0920 cd         1 C64       0.380800
     14 C7           2.7830    -3.8200     0.7700 cd         1 C64      -0.292000
     15 C8           2.9710    -1.4920     0.1920 cd         1 C64       0.396100
     16 C9           5.3030     2.7050     0.8710 ca         1 C64      -0.046000
     17 C10          3.4310     1.9980    -0.5000 ca         1 C64      -0.067200
     18 C11          4.4350     1.7030     0.4360 ca         1 C64       0.078400
     19 C12         -2.8990    -0.7470    -1.8660 ca         1 C64      -0.153000
     20 C13          0.3660     0.4680    -0.6730 c          1 C64       0.603100
     21 C14          5.1320     3.9740     0.3540 ca         1 C64      -0.132000
     22 C15          1.8520    -3.3510    -0.1030 cc         1 C64       0.280900
     23 C16         -4.2190    -0.9920    -1.5330 ca         1 C64      -0.055500
     24 C17          1.6130     0.6300    -1.5350 c3         1 C64       0.000600
     25 C18         -4.6580    -0.7160    -0.2470 ca         1 C64      -0.048900
     26 H1           2.4750     3.5020    -1.7420 ha         1 C64       0.116000
     27 H2          -1.8010     0.4440     1.1130 ha         1 C64       0.132500
     28 H3           4.0170     5.2610    -0.9600 ha         1 C64       0.114000
     29 HN4         -0.5230    -0.2600    -2.3280 hn         1 C64       0.152000
     30 H5          -4.1140     0.0180     1.7010 ha         1 C64       0.130000
     31 H7           2.8860    -4.8180     1.1650 h4         1 C64       0.164000
     32 H9           6.0820     2.4910     1.5910 ha         1 C64       0.130000
     33 H12         -2.5670    -0.9650    -2.8740 ha         1 C64       0.132500
     34 H14          5.7890     4.7730     0.6710 ha         1 C64       0.116000
     35 H15          1.0590    -3.9420    -0.5370 h4         1 C64       0.042100
     36 H16         -4.8870    -1.3940    -2.2820 ha         1 C64       0.130000
     37 H17          1.4920     1.5140    -2.1640 h1         1 C64       0.083200
     38 H17A         1.7440    -0.2200    -2.2040 h1         1 C64       0.083200
@<TRIPOS>BOND
     1     1    20 2   
     2     2    14 1   
     3     2    15 1   
     4     3    25 1   
     5     4     8 ar  
     6     4    17 ar  
     7     4    26 1   
     8     5    13 1   
     9     5    17 1   
    10     5    24 1   
    11     6    10 ar  
    12     6    12 ar  
    13     6    27 1   
    14     7    15 2   
    15     7    22 1   
    16     8    21 ar  
    17     8    28 1   
    18     9    13 2   
    19     9    18 1   
    20    10    11 1   
    21    10    19 ar  
    22    11    20 1   
    23    11    29 1   
    24    12    25 ar  
    25    12    30 1   
    26    13    15 1   
    27    14    22 2   
    28    14    31 1   
    29    16    18 ar  
    30    16    21 ar  
    31    16    32 1   
    32    17    18 ar  
    33    19    23 ar  
    34    19    33 1   
    35    20    24 1   
    36    21    34 1   
    37    22    35 1   
    38    23    25 ar  
    39    23    36 1   
    40    24    37 1   
    41    24    38 1   
@<TRIPOS>SUBSTRUCTURE
     1 C64         1 TEMP              0 ****  ****    0 ROOT
