@<TRIPOS>MOLECULE
C65
   33    34     1     0     0
SMALL
abcg2


@<TRIPOS>ATOM
      1 CAA         -6.4540     0.7810    -0.4490 ca         1 C65      -0.121000
      2 CAB         -7.1470    -0.3840    -0.1280 ca         1 C65      -0.088000
      3 CAC         -6.4520    -1.5260     0.2410 ca         1 C65      -0.121000
      4 CAD         -5.0660    -1.5040     0.2890 ca         1 C65      -0.071500
      5 CAE         -4.3710    -0.3380    -0.0180 ca         1 C65       0.072400
      6 CAF         -5.0710     0.8120    -0.3940 ca         1 C65      -0.071500
      7 NAG         -2.9710    -0.4280     0.0690 ne         1 C65      -0.196400
      8 NAH         -2.3610     0.6430    -0.0510 nf         1 C65      -0.204400
      9 CAI         -0.9610     0.5490     0.0210 ca         1 C65       0.092400
     10 CAJ         -0.2780     1.7610     0.0420 ca         1 C65      -0.079500
     11 CAK          1.1020     1.7830     0.1300 ca         1 C65      -0.097500
     12 CAL          1.8310     0.5930     0.1680 ca         1 C65      -0.061800
     13 CAM          1.1340    -0.6220     0.1430 ca         1 C65      -0.097500
     14 CAN         -0.2440    -0.6500     0.0730 ca         1 C65      -0.079500
     15 CAO          3.2880     0.6590     0.2370 ce         1 C65      -0.074200
     16 CAP          4.1300    -0.3170    -0.1110 cf         1 C65      -0.300200
     17 CAQ          5.5930    -0.1230     0.0060 c          1 C65       0.608300
     18 NAR          6.2890    -1.2190    -0.3510 ns         1 C65      -0.393400
     19 OAS          6.1170     0.9090     0.3940 o          1 C65      -0.578100
     20 OAT          7.6450    -1.1900    -0.4130 oh         1 C65      -0.416100
     21 HAA         -6.9970     1.6690    -0.7460 ha         1 C65       0.117500
     22 HAB         -8.2290    -0.3980    -0.1720 ha         1 C65       0.115000
     23 HAC         -6.9860    -2.4330     0.4900 ha         1 C65       0.117500
     24 HAD         -4.5080    -2.3890     0.5720 ha         1 C65       0.129500
     25 HAF         -4.5350     1.7160    -0.6480 ha         1 C65       0.129500
     26 HAJ         -0.8420     2.6840    -0.0030 ha         1 C65       0.133500
     27 HAK          1.6230     2.7320     0.1610 ha         1 C65       0.119000
     28 HAM          1.6770    -1.5570     0.1950 ha         1 C65       0.119000
     29 HAN         -0.7660    -1.5970     0.0630 ha         1 C65       0.133500
     30 HAO          3.7030     1.5990     0.5870 ha         1 C65       0.202000
     31 HAP          3.7660    -1.2630    -0.4960 ha         1 C65       0.180000
     32 HNAR         5.8570    -2.0540    -0.7190 hn         1 C65       0.339500
     33 HOAT         7.9660    -1.4530     0.4600 ho         1 C65       0.441000
@<TRIPOS>BOND
     1     1     2 ar  
     2     1     6 ar  
     3     1    21 1   
     4     2     3 ar  
     5     2    22 1   
     6     3     4 ar  
     7     3    23 1   
     8     4     5 ar  
     9     4    24 1   
    10     5     6 ar  
    11     5     7 1   
    12     6    25 1   
    13     7     8 2   
    14     8     9 1   
    15     9    10 ar  
    16     9    14 ar  
    17    10    11 ar  
    18    10    26 1   
    19    11    12 ar  
    20    11    27 1   
    21    12    13 ar  
    22    12    15 1   
    23    13    14 ar  
    24    13    28 1   
    25    14    29 1   
    26    15    16 2   
    27    15    30 1   
    28    16    17 1   
    29    16    31 1   
    30    17    18 1   
    31    17    19 2   
    32    18    20 1   
    33    18    32 1   
    34    20    33 1   
@<TRIPOS>SUBSTRUCTURE
     1 C65         1 TEMP              0 ****  ****    0 ROOT
