@<TRIPOS>MOLECULE
C65
   33    34     1     0     0
SMALL
No Charge or Current Charge


@<TRIPOS>ATOM
      1 CAA         -6.6610     0.9230    -0.3390 ca         1 C65      -0.121000
      2 CAB         -7.2530    -0.3220    -0.0650 ca         1 C65      -0.088000
      3 CAC         -6.4490    -1.4680     0.0600 ca         1 C65      -0.121000
      4 CAD         -5.0540    -1.3690    -0.0870 ca         1 C65      -0.071500
      5 CAE         -4.4560    -0.1230    -0.3580 ca         1 C65       0.072400
      6 CAF         -5.2660     1.0220    -0.4860 ca         1 C65      -0.071500
      7 NAG         -3.0610    -0.0250    -0.5120 ne         1 C65      -0.196400
      8 NAH         -2.4060     0.2090     0.5460 nf         1 C65      -0.204400
      9 CAI         -1.0020     0.3080     0.3930 ca         1 C65       0.092400
     10 CAJ         -0.4060     1.5520     0.1240 ca         1 C65      -0.079500
     11 CAK          0.9900     1.6510    -0.0220 ca         1 C65      -0.097500
     12 CAL          1.8070     0.5080     0.1020 ca         1 C65      -0.061800
     13 CAM          1.2020    -0.7370     0.3760 ca         1 C65      -0.097500
     14 CAN         -0.1940    -0.8350     0.5210 ca         1 C65      -0.079500
     15 CAO          3.2850     0.6460    -0.0580 ce         1 C65      -0.074200
     16 CAP          4.2540    -0.3160     0.0150 cf         1 C65      -0.300200
     17 CAQ          5.7050    -0.0470    -0.1640 c          1 C65       0.608300
     18 NAR          6.5220    -1.1630    -0.0480 ns         1 C65      -0.393400
     19 OAS          6.1450     1.0730    -0.3860 o          1 C65      -0.578100
     20 OAT          7.9150    -1.1130    -0.4460 oh         1 C65      -0.416100
     21 HAA         -7.2820     1.8110    -0.4370 ha         1 C65       0.117500
     22 HAB         -8.3330    -0.3990     0.0490 ha         1 C65       0.115000
     23 HAC         -6.9060    -2.4330     0.2710 ha         1 C65       0.117500
     24 HAD         -4.4350    -2.2580     0.0100 ha         1 C65       0.129500
     25 HAF         -4.8110     1.9870    -0.6980 ha         1 C65       0.129500
     26 HAJ         -1.0250     2.4400     0.0260 ha         1 C65       0.133500
     27 HAK          1.4330     2.6210    -0.2320 ha         1 C65       0.119000
     28 HAM          1.8000    -1.6370     0.4790 ha         1 C65       0.119000
     29 HAN         -0.6500    -1.7990     0.7330 ha         1 C65       0.133500
     30 HAO          3.6080     1.6700    -0.2620 ha         1 C65       0.202000
     31 HAP          3.9780    -1.3470     0.2170 ha         1 C65       0.180000
     32 HNAR         6.0980    -2.0880    -0.0100 hn         1 C65       0.339500
     33 HOAT         8.3900    -1.4990     0.3280 ho         1 C65       0.441000
@<TRIPOS>BOND
     1     1     2 ar  
     2     1     6 ar  
     3     1    21 1   
     4     2     3 ar  
     5     2    22 1   
     6     3     4 ar  
     7     3    23 1   
     8     4     5 ar  
     9     4    24 1   
    10     5     6 ar  
    11     5     7 1   
    12     6    25 1   
    13     7     8 2   
    14     8     9 1   
    15     9    10 ar  
    16     9    14 ar  
    17    10    11 ar  
    18    10    26 1   
    19    11    12 ar  
    20    11    27 1   
    21    12    13 ar  
    22    12    15 1   
    23    13    14 ar  
    24    13    28 1   
    25    14    29 1   
    26    15    16 2   
    27    15    30 1   
    28    16    17 1   
    29    16    31 1   
    30    17    18 1   
    31    17    19 2   
    32    18    20 1   
    33    18    32 1   
    34    20    33 1   
@<TRIPOS>SUBSTRUCTURE
     1 C65         1 TEMP              0 ****  ****    0 ROOT
