@<TRIPOS>MOLECULE
C66
   47    47     1     0     0
SMALL
abcg2


@<TRIPOS>ATOM
      1 C8           2.6540    -1.5630    -0.3810 c3         1 C66      -0.004000
      2 C7           2.2300    -0.1100    -0.6120 c          1 C66       0.599100
      3 O7           2.4410     0.7210     0.2590 o          1 C66      -0.570100
      4 C5           1.0980     1.5230    -1.9680 c3         1 C66      -0.024300
      5 C            0.1100     1.9180    -0.8350 c          1 C66       0.730000
      6 O1          -0.5750     0.9990    -0.3540 o          1 C66      -0.721000
      7 OXT          0.0380     3.1310    -0.5570 o          1 C66      -0.721000
      8 N4           1.6330     0.1770    -1.7770 n          1 C66      -0.366800
      9 C3           1.2960    -0.8310    -2.7660 c3         1 C66       0.076000
     10 C2          -0.0830    -1.4650    -2.5640 c3         1 C66       0.108800
     11 N1          -0.4360    -2.4370    -3.5830 n8         1 C66      -0.999200
     12 N5           3.3360    -1.6820     0.8830 n          1 C66      -0.282000
     13 C9           4.6770    -1.2810     0.9560 c          1 C66       0.720400
     14 N3           5.2750    -1.2780     2.1650 nc         1 C66      -0.780100
     15 C4           4.6030    -1.5960     3.2540 cd         1 C66       0.786500
     16 C1           3.2230    -1.9610     3.2190 cd         1 C66      -0.505600
     17 C6           2.6400    -1.9710     2.0030 cc         1 C66       0.050600
     18 O2           5.2550    -0.9630    -0.0750 o          1 C66      -0.554000
     19 N2           5.2460    -1.5710     4.4220 nv         1 C66      -1.049200
     20 CB           2.1890     2.5480    -2.2630 c3         1 C66      -0.070400
     21 CG           3.0270     2.2070    -3.4890 c3         1 C66      -0.075400
     22 CD           4.0890     3.2590    -3.7840 c3         1 C66      -0.079400
     23 CE           4.8860     2.9600    -5.0430 c3         1 C66       0.144800
     24 NZ           5.9120     3.9700    -5.2670 n8         1 C66      -0.993200
     25 H8'1         1.7790    -2.2150    -0.3660 h1         1 C66       0.068700
     26 H8'2         3.3040    -1.9230    -1.1760 h1         1 C66       0.068700
     27 H5'1         0.4740     1.4570    -2.8690 h1         1 C66       0.020700
     28 H3'1         2.0600    -1.6100    -2.7930 h1         1 C66       0.026700
     29 H3'2         1.3290    -0.3570    -3.7510 h1         1 C66       0.026700
     30 H2'1        -0.8410    -0.6810    -2.5400 h1         1 C66       0.079700
     31 H2'2        -0.1240    -1.9500    -1.5860 h1         1 C66       0.079700
     32 H1'1         0.2620    -3.1700    -3.6210 hn         1 C66       0.379000
     33 H1'2        -0.4260    -1.9960    -4.4950 hn         1 C66       0.379000
     34 H5           2.6680    -2.2100     4.1110 ha         1 C66       0.193000
     35 H6           1.5970    -2.2260     1.8710 h4         1 C66       0.206000
     36 HN41         6.2110    -1.2930     4.4630 hn         1 C66       0.492000
     37 HN42         4.7740    -1.7730     5.2860 hn         1 C66       0.492000
     38 HB1          1.7050     3.5140    -2.4200 hc         1 C66       0.063200
     39 HB2          2.8390     2.6690    -1.3930 hc         1 C66       0.063200
     40 HG1          2.3710     2.1000    -4.3610 hc         1 C66       0.023200
     41 HG2          3.5150     1.2370    -3.3530 hc         1 C66       0.023200
     42 HD1          4.7760     3.3380    -2.9350 hc         1 C66       0.045700
     43 HD2          3.6110     4.2410    -3.8850 hc         1 C66       0.045700
     44 HE1          5.3790     1.9900    -4.9320 h1         1 C66       0.020700
     45 HE2          4.1880     2.8520    -5.8870 h1         1 C66       0.020700
     46 HZ1          5.4640     4.8610    -5.4430 hn         1 C66       0.380500
     47 HZ2          6.4180     3.7520    -6.1160 hn         1 C66       0.380500
@<TRIPOS>BOND
     1     1     2 1   
     2     1    12 1   
     3     1    25 1   
     4     1    26 1   
     5     2     3 2   
     6     2     8 1   
     7     4     5 1   
     8     4     8 1   
     9     4    20 1   
    10     4    27 1   
    11     5     6 1   
    12     5     7 1   
    13     8     9 1   
    14     9    10 1   
    15     9    28 1   
    16     9    29 1   
    17    10    11 1   
    18    10    30 1   
    19    10    31 1   
    20    11    32 1   
    21    11    33 1   
    22    12    13 1   
    23    12    17 1   
    24    13    14 1   
    25    13    18 2   
    26    14    15 2   
    27    15    16 1   
    28    15    19 1   
    29    16    17 2   
    30    16    34 1   
    31    17    35 1   
    32    19    36 1   
    33    19    37 1   
    34    20    21 1   
    35    20    38 1   
    36    20    39 1   
    37    21    22 1   
    38    21    40 1   
    39    21    41 1   
    40    22    23 1   
    41    22    42 1   
    42    22    43 1   
    43    23    24 1   
    44    23    44 1   
    45    23    45 1   
    46    24    46 1   
    47    24    47 1   
@<TRIPOS>SUBSTRUCTURE
     1 C66         1 TEMP              0 ****  ****    0 ROOT
