@<TRIPOS>MOLECULE
C66
   47    47     1     0     0
SMALL
No Charge or Current Charge


@<TRIPOS>ATOM
      1 C8           2.7580    -1.4440    -0.1770 c3         1 C66      -0.004000
      2 C7           2.2630     0.0020    -0.4290 c          1 C66       0.599100
      3 O7           2.4090     0.8690     0.4260 o          1 C66      -0.570100
      4 C5           1.0560     1.6620    -1.9410 c3         1 C66      -0.024300
      5 C            0.0940     2.1830    -0.8130 c          1 C66       0.730000
      6 O1          -0.8410     1.4630    -0.4870 o          1 C66      -0.721000
      7 OXT          0.2630     3.3010    -0.3400 o          1 C66      -0.721000
      8 N4           1.6460     0.3050    -1.6760 n          1 C66      -0.366800
      9 C3           1.4310    -0.7280    -2.7230 c3         1 C66       0.076000
     10 C2           0.0310    -1.3900    -2.6500 c3         1 C66       0.108800
     11 N1          -0.1680    -2.4220    -3.7010 n8         1 C66      -0.999200
     12 N5           3.3720    -1.6770     1.1610 n          1 C66      -0.282000
     13 C9           4.7180    -1.2960     1.3680 c          1 C66       0.720400
     14 N3           5.2730    -1.5000     2.6040 nc         1 C66      -0.780100
     15 C4           4.5710    -2.0270     3.5470 cd         1 C66       0.786500
     16 C1           3.2250    -2.4210     3.4200 cd         1 C66      -0.505600
     17 C6           2.6290    -2.2350     2.1950 cc         1 C66       0.050600
     18 O2           5.3950    -0.8010     0.4810 o          1 C66      -0.554000
     19 N2           5.1950    -2.1700     4.6960 nv         1 C66      -1.049200
     20 CB           2.1300     2.6980    -2.3860 c3         1 C66      -0.070400
     21 CG           2.9490     2.2810    -3.6320 c3         1 C66      -0.075400
     22 CD           3.9540     3.3630    -4.0850 c3         1 C66      -0.079400
     23 CE           4.7690     2.9390    -5.3250 c3         1 C66       0.144800
     24 NZ           5.7180     3.9890    -5.7360 n8         1 C66      -0.993200
     25 H8'1         1.9030    -2.1190    -0.3080 h1         1 C66       0.068700
     26 H8'2         3.4910    -1.6910    -0.9540 h1         1 C66       0.068700
     27 H5'1         0.3940     1.5480    -2.8090 h1         1 C66       0.020700
     28 H3'1         2.2090    -1.4980    -2.6720 h1         1 C66       0.026700
     29 H3'2         1.5360    -0.2480    -3.7050 h1         1 C66       0.026700
     30 H2'1        -0.7400    -0.6130    -2.7560 h1         1 C66       0.079700
     31 H2'2        -0.0980    -1.8530    -1.6600 h1         1 C66       0.079700
     32 H1'1         0.5750    -3.1300    -3.6310 hn         1 C66       0.379000
     33 H1'2        -0.0160    -2.0000    -4.6260 hn         1 C66       0.379000
     34 H5           2.6870    -2.8560     4.2530 ha         1 C66       0.193000
     35 H6           1.6040    -2.4800     1.9260 h4         1 C66       0.206000
     36 HN41         6.0400    -1.6190     4.7620 hn         1 C66       0.492000
     37 HN42         4.6080    -2.1790     5.5190 hn         1 C66       0.492000
     38 HB1          1.6300     3.6500    -2.6060 hc         1 C66       0.063200
     39 HB2          2.8160     2.8890    -1.5520 hc         1 C66       0.063200
     40 HG1          2.2610     2.0620    -4.4580 hc         1 C66       0.023200
     41 HG2          3.4990     1.3580    -3.4160 hc         1 C66       0.023200
     42 HD1          4.6420     3.5830    -3.2590 hc         1 C66       0.045700
     43 HD2          3.4100     4.2890    -4.3080 hc         1 C66       0.045700
     44 HE1          5.3340     2.0240    -5.1020 h1         1 C66       0.020700
     45 HE2          4.0890     2.7340    -6.1630 h1         1 C66       0.020700
     46 HZ1          5.1900     4.8210    -6.0220 hn         1 C66       0.380500
     47 HZ2          6.1910     3.6920    -6.5980 hn         1 C66       0.380500
@<TRIPOS>BOND
     1     1     2 1   
     2     1    12 1   
     3     1    25 1   
     4     1    26 1   
     5     2     3 2   
     6     2     8 1   
     7     4     5 1   
     8     4     8 1   
     9     4    20 1   
    10     4    27 1   
    11     5     6 1   
    12     5     7 1   
    13     8     9 1   
    14     9    10 1   
    15     9    28 1   
    16     9    29 1   
    17    10    11 1   
    18    10    30 1   
    19    10    31 1   
    20    11    32 1   
    21    11    33 1   
    22    12    13 1   
    23    12    17 1   
    24    13    14 1   
    25    13    18 2   
    26    14    15 2   
    27    15    16 1   
    28    15    19 1   
    29    16    17 2   
    30    16    34 1   
    31    17    35 1   
    32    19    36 1   
    33    19    37 1   
    34    20    21 1   
    35    20    38 1   
    36    20    39 1   
    37    21    22 1   
    38    21    40 1   
    39    21    41 1   
    40    22    23 1   
    41    22    42 1   
    42    22    43 1   
    43    23    24 1   
    44    23    44 1   
    45    23    45 1   
    46    24    46 1   
    47    24    47 1   
@<TRIPOS>SUBSTRUCTURE
     1 C66         1 TEMP              0 ****  ****    0 ROOT
