@<TRIPOS>MOLECULE
C67
   33    32     1     0     0
SMALL
No Charge or Current Charge


@<TRIPOS>ATOM
      1 N            4.6370     1.9470    -0.4730 n8         1 C67      -0.997200
      2 CA           4.5670     0.7520     0.4460 c3         1 C67       0.015500
      3 C            5.9280    -0.0280     0.6740 c          1 C67       0.691000
      4 O            6.5790    -0.3680    -0.3070 o          1 C67      -0.741000
      5 CB           3.4540    -0.2340    -0.0060 c3         1 C67      -0.048400
      6 CG           2.0160     0.3370     0.0730 c3         1 C67      -0.088400
      7 CD           0.9420    -0.6950    -0.3290 c3         1 C67       0.216800
      8 NE          -0.4020    -0.1100    -0.2310 nu         1 C67      -0.900400
      9 CZ          -1.5280    -0.7910    -0.4570 c2         1 C67       0.807100
     10 NH1         -1.5760    -1.8850    -1.0550 n2         1 C67      -0.935100
     11 NH2         -2.5700     0.0260    -0.4920 nu         1 C67      -0.956400
     12 C01         -4.8140     0.9070    -0.0360 c3         1 C67      -0.222400
     13 C02         -3.8810    -0.3050     0.0730 c3         1 C67       0.224800
     14 C03         -6.1670     0.5190     0.5640 c          1 C67       0.722000
     15 O02         -6.3370     0.6930     1.7610 o          1 C67      -0.741500
     16 O03         -6.9990     0.0090    -0.1700 o          1 C67      -0.741500
     17 H1           5.3420     2.6020    -0.1150 hn         1 C67       0.377500
     18 H2           5.0370     1.6400    -1.3680 hn         1 C67       0.377500
     19 H4           4.2710     1.1360     1.4320 h1         1 C67       0.034700
     20 H6           3.6580    -0.5740    -1.0290 hc         1 C67       0.040200
     21 H7           3.5030    -1.1260     0.6320 hc         1 C67       0.040200
     22 H8           1.8220     0.6800     1.0970 hc         1 C67       0.036700
     23 H9           1.9320     1.2120    -0.5840 hc         1 C67       0.036700
     24 H10          1.1320    -1.0310    -1.3580 h1         1 C67       0.041700
     25 H11          1.0180    -1.5700     0.3320 h1         1 C67       0.041700
     26 H12         -0.5150     0.6370     0.4410 hn         1 C67       0.449000
     27 H13         -2.5630    -1.9890    -1.3070 hn         1 C67       0.380400
     28 H14         -2.3200     1.0040    -0.5280 hn         1 C67       0.452000
     29 H15         -4.3470     1.7110     0.5460 hc         1 C67       0.022700
     30 H16         -4.9120     1.1260    -1.1070 hc         1 C67       0.022700
     31 H17         -4.3210    -1.1580    -0.4630 h1         1 C67       0.040700
     32 H18         -3.7710    -0.5890     1.1300 h1         1 C67       0.040700
     33 O1           6.3350    -0.1630     1.8200 o          1 C67      -0.741000
@<TRIPOS>BOND
     1     1     2 1   
     2     1    17 1   
     3     1    18 1   
     4     2     3 1   
     5     2     5 1   
     6     2    19 1   
     7     3     4 1   
     8     3    33 1   
     9     5     6 1   
    10     5    20 1   
    11     5    21 1   
    12     6     7 1   
    13     6    22 1   
    14     6    23 1   
    15     7     8 1   
    16     7    24 1   
    17     7    25 1   
    18     8     9 1   
    19     8    26 1   
    20     9    10 2   
    21     9    11 1   
    22    10    27 1   
    23    11    13 1   
    24    11    28 1   
    25    12    13 1   
    26    12    14 1   
    27    12    29 1   
    28    12    30 1   
    29    13    31 1   
    30    13    32 1   
    31    14    15 1   
    32    14    16 1   
@<TRIPOS>SUBSTRUCTURE
     1 C67         1 TEMP              0 ****  ****    0 ROOT
