@<TRIPOS>MOLECULE
C67
   33    32     1     0     0
SMALL
bcc


@<TRIPOS>ATOM
      1 N            4.7580     1.7360    -0.6480 n8         1 C67      -0.886800
      2 CA           4.6490     0.6660     0.3340 c3         1 C67       0.015500
      3 C            5.9130    -0.2120     0.5040 c          1 C67       0.901600
      4 O            6.7810    -0.1600    -0.3910 o          1 C67      -0.846300
      5 CB           3.4570    -0.2350    -0.0010 c3         1 C67      -0.048400
      6 CG           2.1190     0.4900     0.0140 c3         1 C67      -0.088400
      7 CD           0.9610    -0.4450    -0.2950 c3         1 C67       0.216800
      8 NE          -0.2980     0.2670    -0.2340 nu         1 C67      -0.845200
      9 CZ          -1.4750    -0.3930    -0.4910 c2         1 C67       0.807100
     10 NH1         -1.4540    -1.5540    -1.0390 n2         1 C67      -0.935100
     11 NH2         -2.5960     0.3320    -0.1740 nu         1 C67      -0.901200
     12 C01         -4.9380     0.7110     0.3520 c3         1 C67      -0.222400
     13 C02         -3.9020    -0.2960    -0.1090 c3         1 C67       0.224800
     14 C03         -6.3740     0.1640     0.4520 c          1 C67       0.932600
     15 O02         -7.2380     0.9800     0.8320 o          1 C67      -0.846800
     16 O03         -6.5600    -1.0300     0.1490 o          1 C67      -0.846800
     17 H1           5.4550     2.3990    -0.3310 hn         1 C67       0.322300
     18 H2           5.1540     1.3400    -1.4940 hn         1 C67       0.322300
     19 H4           4.4410     1.1330     1.3040 h1         1 C67       0.034700
     20 H6           3.6180    -0.6900    -0.9860 hc         1 C67       0.040200
     21 H7           3.4330    -1.0590     0.7160 hc         1 C67       0.040200
     22 H8           1.9680     0.9420     1.0020 hc         1 C67       0.036700
     23 H9           2.1330     1.3110    -0.7050 hc         1 C67       0.036700
     24 H10          1.0810    -0.8630    -1.2960 h1         1 C67       0.041700
     25 H11          0.9740    -1.2970     0.3980 h1         1 C67       0.041700
     26 H12         -0.3410     0.9650     0.4930 hn         1 C67       0.393800
     27 H13         -2.3910    -1.8930    -1.2170 hn         1 C67       0.380400
     28 H14         -2.4620     1.0990     0.4670 hn         1 C67       0.396800
     29 H15         -4.6520     1.1090     1.3330 hc         1 C67       0.022700
     30 H16         -4.9390     1.5710    -0.3250 hc         1 C67       0.022700
     31 H17         -4.1750    -0.6710    -1.0980 h1         1 C67       0.040700
     32 H18         -3.8940    -1.1620     0.5640 h1         1 C67       0.040700
     33 O1           5.9450    -0.9320     1.5250 o          1 C67      -0.846300
@<TRIPOS>BOND
     1     1     2 1   
     2     1    17 1   
     3     1    18 1   
     4     2     3 1   
     5     2     5 1   
     6     2    19 1   
     7     3     4 1   
     8     3    33 1   
     9     5     6 1   
    10     5    20 1   
    11     5    21 1   
    12     6     7 1   
    13     6    22 1   
    14     6    23 1   
    15     7     8 1   
    16     7    24 1   
    17     7    25 1   
    18     8     9 1   
    19     8    26 1   
    20     9    10 2   
    21     9    11 1   
    22    10    27 1   
    23    11    13 1   
    24    11    28 1   
    25    12    13 1   
    26    12    14 1   
    27    12    29 1   
    28    12    30 1   
    29    13    31 1   
    30    13    32 1   
    31    14    15 1   
    32    14    16 1   
@<TRIPOS>SUBSTRUCTURE
     1 C67         1 TEMP              0 ****  ****    0 ROOT
