@<TRIPOS>MOLECULE
C68
   37    36     1     0     0
SMALL
No Charge or Current Charge


@<TRIPOS>ATOM
      1 OE1         -4.4340    -2.3800     0.9520 o          1 C68      -0.775000
      2 CD          -4.3510    -1.8300    -0.1360 c          1 C68       0.710000
      3 OE2         -5.2560    -1.8240    -0.9550 o          1 C68      -0.775000
      4 CG          -3.0630    -1.0530    -0.4650 c3         1 C68      -0.198400
      5 CB          -3.1870     0.4160     0.0180 c3         1 C68      -0.048400
      6 CA          -1.9990     1.3320    -0.3810 c3         1 C68      -0.036300
      7 C           -2.2870     2.8240    -0.0220 c          1 C68       0.710000
      8 OXT         -2.4230     3.6240    -0.9380 o          1 C68      -0.758500
      9 O           -2.2910     3.1560     1.1560 o          1 C68      -0.758500
     10 N           -0.7190     0.9000     0.2280 ns         1 C68      -0.434900
     11 CAR          0.2240     0.1090    -0.3740 c          1 C68       0.651100
     12 OAF          0.1690    -0.3070    -1.5220 o          1 C68      -0.569000
     13 OAN          1.2920    -0.0130     0.4690 os         1 C68      -0.465100
     14 CAU          2.4380    -0.7930     0.0210 c3         1 C68       0.057300
     15 CAQ          2.1570    -2.3380    -0.0670 c          1 C68       0.715000
     16 OAI          1.1680    -2.8090     0.4830 o          1 C68      -0.740500
     17 OAE          2.9310    -3.0250    -0.7220 o          1 C68      -0.740500
     18 CAL          3.6070    -0.5000     1.0020 c3         1 C68      -0.049400
     19 CAS          4.0270     0.9940     1.1270 c3         1 C68      -0.063700
     20 CAB          5.1110     1.1720     2.2130 c3         1 C68      -0.080600
     21 CAA          4.4930     1.6010    -0.2190 c3         1 C68      -0.080600
     22 H2          -2.2120    -1.4820     0.0760 hc         1 C68       0.021200
     23 H3          -2.9160    -1.0010    -1.5510 hc         1 C68       0.021200
     24 H4          -4.1050     0.8450    -0.4020 hc         1 C68       0.037700
     25 H5          -3.3060     0.4290     1.1080 hc         1 C68       0.037700
     26 H6          -1.8890     1.2890    -1.4730 h1         1 C68       0.054700
     27 H8          -0.5010     1.2150     1.1640 hn         1 C68       0.283500
     28 H9           2.7440    -0.4710    -0.9830 h1         1 C68       0.044700
     29 H11          3.3260    -0.8770     1.9930 hc         1 C68       0.029700
     30 H12          4.4810    -1.0840     0.6880 hc         1 C68       0.029700
     31 H13          3.1500     1.5650     1.4570 hc         1 C68       0.065700
     32 H14          5.3640     2.2320     2.3390 hc         1 C68       0.017700
     33 H15          4.7580     0.7940     3.1800 hc         1 C68       0.017700
     34 H16          6.0260     0.6300     1.9450 hc         1 C68       0.017700
     35 H17          3.6810     1.6050    -0.9540 hc         1 C68       0.017700
     36 H18          4.8180     2.6390    -0.0820 hc         1 C68       0.017700
     37 H19          5.3340     1.0310    -0.6330 hc         1 C68       0.017700
@<TRIPOS>BOND
     1     1     2 1   
     2     2     3 1   
     3     2     4 1   
     4     4     5 1   
     5     4    22 1   
     6     4    23 1   
     7     5     6 1   
     8     5    24 1   
     9     5    25 1   
    10     6     7 1   
    11     6    10 1   
    12     6    26 1   
    13     7     8 1   
    14     7     9 1   
    15    10    11 1   
    16    10    27 1   
    17    11    12 2   
    18    11    13 1   
    19    13    14 1   
    20    14    15 1   
    21    14    18 1   
    22    14    28 1   
    23    15    16 1   
    24    15    17 1   
    25    18    19 1   
    26    18    29 1   
    27    18    30 1   
    28    19    20 1   
    29    19    21 1   
    30    19    31 1   
    31    20    32 1   
    32    20    33 1   
    33    20    34 1   
    34    21    35 1   
    35    21    36 1   
    36    21    37 1   
@<TRIPOS>SUBSTRUCTURE
     1 C68         1 TEMP              0 ****  ****    0 ROOT
