@<TRIPOS>MOLECULE
C68
   37    36     1     0     0
SMALL
bcc


@<TRIPOS>ATOM
      1 OE1         -5.1430    -2.0420     1.6240 o          1 C68      -0.880300
      2 CD          -4.8150    -0.9010     1.2320 c          1 C68       0.920600
      3 OE2         -5.4410     0.1560     1.4440 o          1 C68      -0.880300
      4 CG          -3.5250    -0.8210     0.3960 c3         1 C68      -0.198400
      5 CB          -3.0230     0.5850     0.1050 c3         1 C68      -0.048400
      6 CA          -1.7890     0.6320    -0.7960 c3         1 C68      -0.036300
      7 C           -1.4370     2.1010    -1.1450 c          1 C68       0.920600
      8 OXT         -2.2490     2.6760    -1.8990 o          1 C68      -0.863800
      9 O           -0.4110     2.5880    -0.6370 o          1 C68      -0.863800
     10 N           -0.6940    -0.0660    -0.1550 ns         1 C68      -0.501900
     11 CAR          0.4850    -0.1840    -0.8050 c          1 C68       0.767100
     12 OAF          0.6190    -0.1110    -2.0100 o          1 C68      -0.618000
     13 OAN          1.4810    -0.4230     0.0480 os         1 C68      -0.441900
     14 CAU          2.7810    -0.6170    -0.4990 c3         1 C68       0.034100
     15 CAQ          2.9250    -1.9940    -1.1790 c          1 C68       0.925600
     16 OAI          2.0230    -2.8280    -0.9980 o          1 C68      -0.845800
     17 OAE          3.9770    -2.1390    -1.8340 o          1 C68      -0.845800
     18 CAL          3.7680    -0.4700     0.6520 c3         1 C68      -0.049400
     19 CAS          3.6580     0.8340     1.4490 c3         1 C68      -0.063700
     20 CAB          4.7690     0.8840     2.4940 c3         1 C68      -0.080600
     21 CAA          3.6990     2.0690     0.5540 c3         1 C68      -0.080600
     22 H2          -2.7520    -1.4120     0.8960 hc         1 C68       0.021200
     23 H3          -3.7100    -1.3400    -0.5530 hc         1 C68       0.021200
     24 H4          -3.8100     1.1600    -0.3810 hc         1 C68       0.037700
     25 H5          -2.8010     1.1050     1.0440 hc         1 C68       0.037700
     26 H6          -2.0330     0.1110    -1.7270 h1         1 C68       0.054700
     27 H8          -0.6260     0.0560     0.8440 hn         1 C68       0.283500
     28 H9           2.9840     0.1600    -1.2410 h1         1 C68       0.044700
     29 H11          3.6620    -1.3170     1.3390 hc         1 C68       0.029700
     30 H12          4.7720    -0.5440     0.2250 hc         1 C68       0.029700
     31 H13          2.7020     0.8350     1.9820 hc         1 C68       0.065700
     32 H14          4.6860     1.7740     3.1210 hc         1 C68       0.017700
     33 H15          4.7370     0.0120     3.1490 hc         1 C68       0.017700
     34 H16          5.7540     0.9050     2.0200 hc         1 C68       0.017700
     35 H17          2.8190     2.1380    -0.0870 hc         1 C68       0.017700
     36 H18          3.7330     2.9810     1.1530 hc         1 C68       0.017700
     37 H19          4.5860     2.0620    -0.0860 hc         1 C68       0.017700
@<TRIPOS>BOND
     1     1     2 1   
     2     2     3 1   
     3     2     4 1   
     4     4     5 1   
     5     4    22 1   
     6     4    23 1   
     7     5     6 1   
     8     5    24 1   
     9     5    25 1   
    10     6     7 1   
    11     6    10 1   
    12     6    26 1   
    13     7     8 1   
    14     7     9 1   
    15    10    11 1   
    16    10    27 1   
    17    11    12 2   
    18    11    13 1   
    19    13    14 1   
    20    14    15 1   
    21    14    18 1   
    22    14    28 1   
    23    15    16 1   
    24    15    17 1   
    25    18    19 1   
    26    18    29 1   
    27    18    30 1   
    28    19    20 1   
    29    19    21 1   
    30    19    31 1   
    31    20    32 1   
    32    20    33 1   
    33    20    34 1   
    34    21    35 1   
    35    21    36 1   
    36    21    37 1   
@<TRIPOS>SUBSTRUCTURE
     1 C68         1 TEMP              0 ****  ****    0 ROOT
