@<TRIPOS>MOLECULE
C69
   39    41     1     0     0
SMALL
abcg2


@<TRIPOS>ATOM
      1 CAB          2.9280     0.5100    -3.2620 c3         1 C69       0.146900
      2 OAA          2.4650    -0.0730    -2.0570 os         1 C69      -0.340100
      3 CAD          2.3180     0.7060    -0.9770 ca         1 C69       0.180100
      4 CAC          2.5850     2.0650    -0.9490 ca         1 C69      -0.238000
      5 CAN          2.4090     2.7890     0.2340 ca         1 C69       0.190100
      6 OAM          2.6960     4.0990     0.1550 os         1 C69      -0.340100
      7 CAL          2.5290     4.8990     1.3090 c3         1 C69       0.147900
      8 CAO          1.9640     2.1540     1.3890 ca         1 C69      -0.235000
      9 CAP          1.7000     0.7910     1.3440 ca         1 C69      -0.011000
     10 CAE          1.8650     0.0600     0.1860 ca         1 C69      -0.131000
     11 NAF          1.5840    -1.3260     0.1400 n          1 C69      -0.224400
     12 CAQ          2.5930    -2.2320     0.1990 c          1 C69       0.577000
     13 OAW          3.7390    -1.9600     0.4860 o          1 C69      -0.513000
     14 CAR          2.1290    -3.6240    -0.1620 c5         1 C69      -0.038400
     15 SAS          0.3260    -3.5810    -0.2480 ss         1 C69      -0.404000
     16 CAG          0.2880    -1.7540    -0.3530 c5         1 C69       0.314000
     17 CAH         -0.8440    -1.2010     0.4680 ca         1 C69      -0.096300
     18 CAI         -1.7880    -0.3890    -0.1430 ca         1 C69      -0.063000
     19 CAJ         -2.8210     0.1460     0.6160 ca         1 C69      -0.023900
     20 BRA         -4.1040     1.2480    -0.2250 br         1 C69      -0.096100
     21 CAV         -2.9240    -0.1100     1.9730 ca         1 C69      -0.073000
     22 CAU         -1.9700    -0.9230     2.5740 ca         1 C69      -0.117000
     23 CAT         -0.9380    -1.4690     1.8310 ca         1 C69      -0.064000
     24 H1           3.9240     0.9420    -3.1450 h1         1 C69       0.045367
     25 H2           2.9770    -0.2940    -3.9910 h1         1 C69       0.045367
     26 H3           2.2470     1.2800    -3.6290 h1         1 C69       0.045367
     27 H4           2.9340     2.5890    -1.8290 ha         1 C69       0.134000
     28 H5           3.1630     4.5640     2.1330 h1         1 C69       0.043367
     29 H6           2.8220     5.9080     1.0300 h1         1 C69       0.043367
     30 H7           1.4900     4.9150     1.6460 h1         1 C69       0.043367
     31 H8           1.8200     2.6890     2.3170 ha         1 C69       0.124000
     32 H9           1.3550     0.2890     2.2380 ha         1 C69       0.125000
     33 H10          2.5750    -3.9030    -1.1180 h1         1 C69       0.101700
     34 H11          2.4570    -4.3400     0.5900 h1         1 C69       0.101700
     35 H12          0.1640    -1.4490    -1.3960 h2         1 C69       0.084700
     36 H13         -1.7110    -0.1760    -1.2020 ha         1 C69       0.131000
     37 H14         -3.7280     0.3100     2.5630 ha         1 C69       0.130000
     38 H15         -2.0420    -1.1290     3.6330 ha         1 C69       0.120000
     39 H16         -0.2050    -2.1060     2.3090 ha         1 C69       0.131000
@<TRIPOS>BOND
     1     1     2 1   
     2     1    24 1   
     3     1    25 1   
     4     1    26 1   
     5     2     3 1   
     6     3     4 ar  
     7     3    10 ar  
     8     4     5 ar  
     9     4    27 1   
    10     5     6 1   
    11     5     8 ar  
    12     6     7 1   
    13     7    28 1   
    14     7    29 1   
    15     7    30 1   
    16     8     9 ar  
    17     8    31 1   
    18     9    10 ar  
    19     9    32 1   
    20    10    11 1   
    21    11    12 1   
    22    11    16 1   
    23    12    13 2   
    24    12    14 1   
    25    14    15 1   
    26    14    33 1   
    27    14    34 1   
    28    15    16 1   
    29    16    17 1   
    30    16    35 1   
    31    17    18 ar  
    32    17    23 ar  
    33    18    19 ar  
    34    18    36 1   
    35    19    20 1   
    36    19    21 ar  
    37    21    22 ar  
    38    21    37 1   
    39    22    23 ar  
    40    22    38 1   
    41    23    39 1   
@<TRIPOS>SUBSTRUCTURE
     1 C69         1 TEMP              0 ****  ****    0 ROOT
