@<TRIPOS>MOLECULE
C69
   39    41     1     0     0
SMALL
No Charge or Current Charge


@<TRIPOS>ATOM
      1 CAB          1.2570     0.9550    -3.1080 c3         1 C69       0.146900
      2 OAA          1.4570     0.2010    -1.8990 os         1 C69      -0.340100
      3 CAD          1.7900     0.7950    -0.6950 ca         1 C69       0.180100
      4 CAC          2.0230     2.1840    -0.6040 ca         1 C69      -0.238000
      5 CAN          2.4380     2.7610     0.6010 ca         1 C69       0.190100
      6 OAM          2.6500     4.1230     0.6220 os         1 C69      -0.340100
      7 CAL          3.0820     4.8140     1.8080 c3         1 C69       0.147900
      8 CAO          2.6540     1.9420     1.7240 ca         1 C69      -0.235000
      9 CAP          2.4220     0.5610     1.6410 ca         1 C69      -0.011000
     10 CAE          1.9150    -0.0200     0.4590 ca         1 C69      -0.131000
     11 NAF          1.8100    -1.4660     0.3700 n          1 C69      -0.224400
     12 CAQ          2.8630    -2.3350     0.7500 c          1 C69       0.577000
     13 OAW          3.9290    -1.9690     1.2310 o          1 C69      -0.513000
     14 CAR          2.4620    -3.7910     0.4540 c5         1 C69      -0.038400
     15 SAS          0.6140    -3.8390     0.4040 ss         1 C69      -0.404000
     16 CAG          0.6360    -2.1180    -0.2750 c5         1 C69       0.314000
     17 CAH         -0.6300    -1.3300     0.0670 ca         1 C69      -0.096300
     18 CAI         -1.4230    -0.7840    -0.9640 ca         1 C69      -0.063000
     19 CAJ         -2.5770    -0.0430    -0.6580 ca         1 C69      -0.023900
     20 BrA         -3.6260     0.7040    -2.0710 br         1 C69      -0.096100
     21 CAV         -2.9590     0.1540     0.6780 ca         1 C69      -0.073000
     22 CAU         -2.1820    -0.3940     1.7120 ca         1 C69      -0.117000
     23 CAT         -1.0250    -1.1320     1.4080 ca         1 C69      -0.064000
     24 H1           2.1720     1.4910    -3.3900 h1         1 C69       0.045367
     25 H2           0.9890     0.2830    -3.9330 h1         1 C69       0.045367
     26 H3           0.4440     1.6810    -2.9840 h1         1 C69       0.045367
     27 H4           1.9050     2.8340    -1.4640 ha         1 C69       0.134000
     28 H5           4.0580     4.4410     2.1440 h1         1 C69       0.043367
     29 H6           3.1800     5.8880     1.6070 h1         1 C69       0.043367
     30 H7           2.3560     4.6860     2.6210 h1         1 C69       0.043367
     31 H8           3.0080     2.3540     2.6650 ha         1 C69       0.124000
     32 H9           2.6020    -0.0580     2.5180 ha         1 C69       0.125000
     33 H10          2.8820    -4.0750    -0.5180 h1         1 C69       0.101700
     34 H11          2.8590    -4.4490     1.2370 h1         1 C69       0.101700
     35 H12          0.8310    -2.1390    -1.3550 h2         1 C69       0.084700
     36 H13         -1.1390    -0.9270    -2.0040 ha         1 C69       0.131000
     37 H14         -3.8530     0.7280     0.9120 ha         1 C69       0.130000
     38 H15         -2.4740    -0.2450     2.7490 ha         1 C69       0.120000
     39 H16         -0.4280    -1.5470     2.2180 ha         1 C69       0.131000
@<TRIPOS>BOND
     1     1     2 1   
     2     1    24 1   
     3     1    25 1   
     4     1    26 1   
     5     2     3 1   
     6     3     4 ar  
     7     3    10 ar  
     8     4     5 ar  
     9     4    27 1   
    10     5     6 1   
    11     5     8 ar  
    12     6     7 1   
    13     7    28 1   
    14     7    29 1   
    15     7    30 1   
    16     8     9 ar  
    17     8    31 1   
    18     9    10 ar  
    19     9    32 1   
    20    10    11 1   
    21    11    12 1   
    22    11    16 1   
    23    12    13 2   
    24    12    14 1   
    25    14    15 1   
    26    14    33 1   
    27    14    34 1   
    28    15    16 1   
    29    16    17 1   
    30    16    35 1   
    31    17    18 ar  
    32    17    23 ar  
    33    18    19 ar  
    34    18    36 1   
    35    19    20 1   
    36    19    21 ar  
    37    21    22 ar  
    38    21    37 1   
    39    22    23 ar  
    40    22    38 1   
    41    23    39 1   
@<TRIPOS>SUBSTRUCTURE
     1 C69         1 TEMP              0 ****  ****    0 ROOT
