@<TRIPOS>MOLECULE
C6A
   74    77     1     0     0
SMALL
No Charge or Current Charge


@<TRIPOS>ATOM
      1 C1          -5.4150    -0.7670    -1.4200 ca         1 C6A      -0.171000
      2 C2          -4.8770    -1.1990    -0.1910 ca         1 C6A      -0.018300
      3 C3          -5.5400    -0.8620     1.0050 ca         1 C6A      -0.171000
      4 C4          -6.7220    -0.1040     0.9680 ca         1 C6A       0.197500
      5 C5          -7.2530     0.3250    -0.2550 ca         1 C6A      -0.202000
      6 C6          -6.5960    -0.0090    -1.4460 ca         1 C6A       0.197500
      7 F7          -7.1010     0.4030    -2.6290 f          1 C6A      -0.174500
      8 F8          -7.3500     0.2150     2.1200 f          1 C6A      -0.174500
      9 C9          -3.5870    -2.0110    -0.1520 c3         1 C6A      -0.047100
     10 C10         -2.3670    -1.1880     0.3440 c3         1 C6A       0.101700
     11 C11         -1.0310    -2.0040     0.3210 c3         1 C6A       0.146300
     12 C12          0.2050    -1.1450     0.7210 c3         1 C6A       0.133800
     13 N13          1.4550    -1.9380     0.7030 n7         1 C6A      -0.858400
     14 C14          2.6930    -1.2930     1.1920 c6         1 C6A       0.231800
     15 C15          3.0600    -0.0620     0.3560 ca         1 C6A      -0.163300
     16 C16          4.0640    -0.1410    -0.6360 ca         1 C6A       0.175100
     17 O17          4.7680    -1.3060    -0.8630 os         1 C6A      -0.350100
     18 C18          4.3070    -2.5460    -0.2810 c6         1 C6A       0.213300
     19 C19          3.8460    -2.3130     1.1730 c6         1 C6A      -0.109400
     20 C20          2.4230     1.1750     0.5920 ca         1 C6A      -0.070000
     21 C21          2.7570     2.3150    -0.1640 ca         1 C6A      -0.119300
     22 C22          3.7450     2.2160    -1.1630 ca         1 C6A      -0.065000
     23 C23          4.4040     0.9960    -1.3860 ca         1 C6A      -0.149000
     24 C24          2.0330     3.6390     0.0780 c3         1 C6A      -0.015100
     25 C25          2.6860     4.5720     1.1490 c3         1 C6A      -0.043000
     26 C26          4.1280     4.9650     0.7290 c3         1 C6A      -0.083767
     27 C27          1.8320     5.8630     1.2670 c3         1 C6A      -0.083767
     28 C28          2.7280     3.8750     2.5350 c3         1 C6A      -0.083767
     29 C29          5.3980    -3.6370    -0.3660 cx         1 C6A      -0.138700
     30 C30          6.8560    -3.3140    -0.1260 cx         1 C6A      -0.120900
     31 C31          6.3820    -3.6930    -1.5130 cx         1 C6A      -0.120900
     32 O32         -1.1320    -3.1510     1.1980 oh         1 C6A      -0.648000
     33 N33         -2.2690     0.1040    -0.3610 ns         1 C6A      -0.509900
     34 C34         -1.9810     0.2780    -1.6970 c          1 C6A       0.603100
     35 C35         -1.9520     1.7300    -2.1510 c3         1 C6A      -0.182100
     36 O36         -1.7630    -0.6510    -2.4600 o          1 C6A      -0.602100
     37 H1          -4.9180    -1.0120    -2.3540 ha         1 C6A       0.140500
     38 H3          -5.1420    -1.1840     1.9630 ha         1 C6A       0.140500
     39 H5          -8.1670     0.9120    -0.2800 ha         1 C6A       0.150000
     40 H9          -3.7260    -2.8810     0.5010 hc         1 C6A       0.076700
     41 H9A         -3.3670    -2.4190    -1.1460 hc         1 C6A       0.076700
     42 H10         -2.5640    -0.9330     1.3940 h1         1 C6A       0.036700
     43 H11         -0.8640    -2.3420    -0.7120 h1         1 C6A       0.119700
     44 H12          0.2890    -0.3050     0.0190 h1         1 C6A       0.033200
     45 H12A         0.0330    -0.7250     1.7210 h1         1 C6A       0.033200
     46 HN13         1.2840    -2.7810     1.2630 hn         1 C6A       0.417000
     47 H14          2.5310    -0.9790     2.2350 h1         1 C6A       0.031700
     48 H18          3.4470    -2.8950    -0.8720 h1         1 C6A       0.075700
     49 H19          4.6870    -1.9330     1.7690 hc         1 C6A       0.058200
     50 H19A         3.5330    -3.2570     1.6380 hc         1 C6A       0.058200
     51 H20          1.6630     1.2500     1.3660 ha         1 C6A       0.100000
     52 H22          4.0110     3.0870    -1.7580 ha         1 C6A       0.113000
     53 H23          5.1800     0.9280    -2.1430 ha         1 C6A       0.128000
     54 H24          1.9570     4.1870    -0.8700 hc         1 C6A       0.039200
     55 H24A         0.9960     3.4330     0.3730 hc         1 C6A       0.039200
     56 H26          4.1340     5.4300    -0.2640 hc         1 C6A       0.033367
     57 H26A         4.5600     5.6800     1.4400 hc         1 C6A       0.033367
     58 H26B         4.7860     4.0890     0.6990 hc         1 C6A       0.033367
     59 H27          0.8050     5.6280     1.5730 hc         1 C6A       0.033367
     60 H27A         2.2570     6.5490     2.0110 hc         1 C6A       0.033367
     61 H27B         1.7860     6.3930     0.3080 hc         1 C6A       0.033367
     62 H28          3.3820     2.9950     2.5180 hc         1 C6A       0.033367
     63 H28A         3.1120     4.5570     3.3040 hc         1 C6A       0.033367
     64 H28B         1.7260     3.5500     2.8420 hc         1 C6A       0.033367
     65 H29          5.0450    -4.5950     0.0090 hc         1 C6A       0.080700
     66 H30          7.1330    -2.2770     0.0490 hc         1 C6A       0.074450
     67 H30A         7.4510    -4.0400     0.4230 hc         1 C6A       0.074450
     68 H31          6.6600    -4.6730    -1.8940 hc         1 C6A       0.074450
     69 H31A         6.3460    -2.9100    -2.2670 hc         1 C6A       0.074450
     70 HO32        -1.2150    -2.8100     2.1140 ho         1 C6A       0.429000
     71 HN33        -2.4460     0.9480     0.1700 hn         1 C6A       0.313500
     72 H35         -2.9060     2.2040    -1.8920 hc         1 C6A       0.062033
     73 H35A        -1.2390     2.2830    -1.5290 hc         1 C6A       0.062033
     74 H35B        -1.7240     1.8340    -3.2170 hc         1 C6A       0.062033
@<TRIPOS>BOND
     1     1     2 ar  
     2     1     6 ar  
     3     1    37 1   
     4     2     3 ar  
     5     2     9 1   
     6     3     4 ar  
     7     3    38 1   
     8     4     5 ar  
     9     4     8 1   
    10     5     6 ar  
    11     5    39 1   
    12     6     7 1   
    13     9    10 1   
    14     9    40 1   
    15     9    41 1   
    16    10    11 1   
    17    10    33 1   
    18    10    42 1   
    19    11    12 1   
    20    11    32 1   
    21    11    43 1   
    22    12    13 1   
    23    12    44 1   
    24    12    45 1   
    25    13    14 1   
    26    13    46 1   
    27    14    15 1   
    28    14    19 1   
    29    14    47 1   
    30    15    16 ar  
    31    15    20 ar  
    32    16    17 1   
    33    16    23 ar  
    34    17    18 1   
    35    18    19 1   
    36    18    29 1   
    37    18    48 1   
    38    19    49 1   
    39    19    50 1   
    40    20    21 ar  
    41    20    51 1   
    42    21    22 ar  
    43    21    24 1   
    44    22    23 ar  
    45    22    52 1   
    46    23    53 1   
    47    24    25 1   
    48    24    54 1   
    49    24    55 1   
    50    25    26 1   
    51    25    27 1   
    52    25    28 1   
    53    26    56 1   
    54    26    57 1   
    55    26    58 1   
    56    27    59 1   
    57    27    60 1   
    58    27    61 1   
    59    28    62 1   
    60    28    63 1   
    61    28    64 1   
    62    29    30 1   
    63    29    31 1   
    64    29    65 1   
    65    30    31 1   
    66    30    66 1   
    67    30    67 1   
    68    31    68 1   
    69    31    69 1   
    70    32    70 1   
    71    33    34 1   
    72    33    71 1   
    73    34    35 1   
    74    34    36 2   
    75    35    72 1   
    76    35    73 1   
    77    35    74 1   
@<TRIPOS>SUBSTRUCTURE
     1 C6A         1 TEMP              0 ****  ****    0 ROOT
