@<TRIPOS>MOLECULE
C6A
   74    77     1     0     0
SMALL
bcc


@<TRIPOS>ATOM
      1 C1          -5.0890    -0.4420    -1.5340 ca         1 C6A      -0.189000
      2 C2          -4.7050    -1.1690    -0.4120 ca         1 C6A      -0.018300
      3 C3          -5.4880    -1.1160     0.7400 ca         1 C6A      -0.189000
      4 C4          -6.6270    -0.3370     0.7410 ca         1 C6A       0.162400
      5 C5          -7.0370     0.3970    -0.3560 ca         1 C6A      -0.220000
      6 C6          -6.2400     0.3190    -1.4810 ca         1 C6A       0.162400
      7 F7          -6.6040     1.0170    -2.5670 f          1 C6A      -0.139400
      8 F8          -7.3770    -0.2880     1.8520 f          1 C6A      -0.139400
      9 C9          -3.4410    -1.9770    -0.4240 c3         1 C6A      -0.047100
     10 C10         -2.3050    -1.2740     0.3390 c3         1 C6A       0.101700
     11 C11         -0.9830    -2.0580     0.2400 c3         1 C6A       0.123100
     12 C12          0.1550    -1.3310     0.9420 c3         1 C6A       0.133800
     13 N13          1.4040    -2.0430     0.7880 n7         1 C6A      -0.803200
     14 C14          2.5720    -1.3340     1.3000 c6         1 C6A       0.231800
     15 C15          2.8960    -0.1500     0.4240 ca         1 C6A      -0.163300
     16 C16          3.7940    -0.2990    -0.6340 ca         1 C6A       0.175100
     17 O17          4.4520    -1.4470    -0.8980 os         1 C6A      -0.326900
     18 C18          4.1550    -2.6200    -0.1460 c6         1 C6A       0.190100
     19 C19          3.7690    -2.2760     1.2820 c6         1 C6A      -0.109400
     20 C20          2.3180     1.0980     0.6300 ca         1 C6A      -0.088000
     21 C21          2.5570     2.1890    -0.1990 ca         1 C6A      -0.119300
     22 C22          3.4390     1.9990    -1.2620 ca         1 C6A      -0.083000
     23 C23          4.0620     0.7810    -1.4730 ca         1 C6A      -0.167000
     24 C24          1.8760     3.5070     0.0410 c3         1 C6A      -0.015100
     25 C25          2.6360     4.5190     0.9250 c3         1 C6A      -0.043000
     26 C26          3.9540     4.9360     0.2730 c3         1 C6A      -0.083767
     27 C27          1.7440     5.7530     1.0820 c3         1 C6A      -0.083767
     28 C28          2.9210     3.9290     2.3060 c3         1 C6A      -0.083767
     29 C29          5.3520    -3.5340    -0.1950 cx         1 C6A      -0.138700
     30 C30          6.7430    -3.0180    -0.0090 cx         1 C6A      -0.120900
     31 C31          6.3090    -3.5510    -1.3450 cx         1 C6A      -0.120900
     32 O32         -1.1520    -3.3690     0.7420 oh         1 C6A      -0.585800
     33 N33         -2.1550     0.1190    -0.0370 ns         1 C6A      -0.576900
     34 C34         -1.8140     0.5730    -1.2550 c          1 C6A       0.670100
     35 C35         -1.6560     2.0700    -1.3610 c3         1 C6A      -0.182100
     36 O36         -1.6250    -0.1610    -2.2170 o          1 C6A      -0.602100
     37 H1          -4.4950    -0.4640    -2.4390 ha         1 C6A       0.158500
     38 H3          -5.2130    -1.6790     1.6240 ha         1 C6A       0.158500
     39 H5          -7.9360     0.9990    -0.3350 ha         1 C6A       0.168000
     40 H9          -3.6190    -2.9430     0.0490 hc         1 C6A       0.076700
     41 H9A         -3.1310    -2.1740    -1.4500 hc         1 C6A       0.076700
     42 H10         -2.5870    -1.2410     1.3960 h1         1 C6A       0.036700
     43 H11         -0.7150    -2.1810    -0.8120 h1         1 C6A       0.119700
     44 H12          0.2660    -0.3470     0.4890 h1         1 C6A       0.033200
     45 H12A        -0.1110    -1.1530     2.0000 h1         1 C6A       0.033200
     46 HN13         1.3370    -2.9350     1.2650 hn         1 C6A       0.361800
     47 H14          2.4120    -0.9730     2.3280 h1         1 C6A       0.031700
     48 H18          3.3090    -3.1240    -0.6280 h1         1 C6A       0.075700
     49 H19          4.6140    -1.8130     1.7980 hc         1 C6A       0.058200
     50 H19A         3.5350    -3.1990     1.8190 hc         1 C6A       0.058200
     51 H20          1.6400     1.2160     1.4690 ha         1 C6A       0.118000
     52 H22          3.6450     2.8170    -1.9420 ha         1 C6A       0.131000
     53 H23          4.7570     0.6570    -2.2950 ha         1 C6A       0.146000
     54 H24          1.6670     3.9870    -0.9210 hc         1 C6A       0.039200
     55 H24A         0.9010     3.3220     0.5030 hc         1 C6A       0.039200
     56 H26          3.7940     5.3470    -0.7270 hc         1 C6A       0.033367
     57 H26A         4.4490     5.7040     0.8730 hc         1 C6A       0.033367
     58 H26B         4.6460     4.0970     0.1810 hc         1 C6A       0.033367
     59 H27          0.7990     5.5000     1.5670 hc         1 C6A       0.033367
     60 H27A         2.2340     6.5170     1.6880 hc         1 C6A       0.033367
     61 H27B         1.5080     6.1970     0.1120 hc         1 C6A       0.033367
     62 H28          3.5980     3.0750     2.2480 hc         1 C6A       0.033367
     63 H28A         3.3870     4.6770     2.9510 hc         1 C6A       0.033367
     64 H28B         2.0040     3.5910     2.7950 hc         1 C6A       0.033367
     65 H29          5.1370    -4.5000     0.2520 hc         1 C6A       0.080700
     66 H30          6.8830    -1.9480     0.0830 hc         1 C6A       0.074450
     67 H30A         7.4320    -3.6070     0.5820 hc         1 C6A       0.074450
     68 H31          6.6960    -4.5100    -1.6640 hc         1 C6A       0.074450
     69 H31A         6.1660    -2.8400    -2.1490 hc         1 C6A       0.074450
     70 HO32        -1.3880    -3.3110     1.6750 ho         1 C6A       0.390000
     71 HN33        -2.2720     0.7960     0.6980 hn         1 C6A       0.313500
     72 H35         -1.9610     2.6080    -0.4650 hc         1 C6A       0.062033
     73 H35A        -0.6080     2.3020    -1.5570 hc         1 C6A       0.062033
     74 H35B        -2.2340     2.4410    -2.2050 hc         1 C6A       0.062033
@<TRIPOS>BOND
     1     1     2 ar  
     2     1     6 ar  
     3     1    37 1   
     4     2     3 ar  
     5     2     9 1   
     6     3     4 ar  
     7     3    38 1   
     8     4     5 ar  
     9     4     8 1   
    10     5     6 ar  
    11     5    39 1   
    12     6     7 1   
    13     9    10 1   
    14     9    40 1   
    15     9    41 1   
    16    10    11 1   
    17    10    33 1   
    18    10    42 1   
    19    11    12 1   
    20    11    32 1   
    21    11    43 1   
    22    12    13 1   
    23    12    44 1   
    24    12    45 1   
    25    13    14 1   
    26    13    46 1   
    27    14    15 1   
    28    14    19 1   
    29    14    47 1   
    30    15    16 ar  
    31    15    20 ar  
    32    16    17 1   
    33    16    23 ar  
    34    17    18 1   
    35    18    19 1   
    36    18    29 1   
    37    18    48 1   
    38    19    49 1   
    39    19    50 1   
    40    20    21 ar  
    41    20    51 1   
    42    21    22 ar  
    43    21    24 1   
    44    22    23 ar  
    45    22    52 1   
    46    23    53 1   
    47    24    25 1   
    48    24    54 1   
    49    24    55 1   
    50    25    26 1   
    51    25    27 1   
    52    25    28 1   
    53    26    56 1   
    54    26    57 1   
    55    26    58 1   
    56    27    59 1   
    57    27    60 1   
    58    27    61 1   
    59    28    62 1   
    60    28    63 1   
    61    28    64 1   
    62    29    30 1   
    63    29    31 1   
    64    29    65 1   
    65    30    31 1   
    66    30    66 1   
    67    30    67 1   
    68    31    68 1   
    69    31    69 1   
    70    32    70 1   
    71    33    34 1   
    72    33    71 1   
    73    34    35 1   
    74    34    36 2   
    75    35    72 1   
    76    35    73 1   
    77    35    74 1   
@<TRIPOS>SUBSTRUCTURE
     1 C6A         1 TEMP              0 ****  ****    0 ROOT
