@<TRIPOS>MOLECULE
C6C
   30    30     1     0     0
SMALL
No Charge or Current Charge


@<TRIPOS>ATOM
      1 N           13.0700    21.0160    17.2840 n8         1 C6C      -0.894800
      2 CA          14.1500    21.4230    16.3000 c3         1 C6C       0.006500
      3 C           15.3500    22.3140    16.8370 c          1 C6C       0.905600
      4 O           15.2390    22.8690    17.9260 o          1 C6C      -0.825800
      5 CB          13.5310    22.0720    15.0370 c3         1 C6C       0.054700
      6 SG          12.7190    23.6930    15.4100 ss         1 C6C      -0.134100
      7 SD          11.9770    24.3230    13.5530 ss         1 C6C      -0.298100
      8 C1          10.1900    23.8460    13.7300 c6         1 C6C       0.039400
      9 C2           9.3370    24.4110    12.5630 c6         1 C6C      -0.066900
     10 C3           9.6310    23.6820    11.2250 c6         1 C6C      -0.071900
     11 C4           9.4310    22.1520    11.3610 c6         1 C6C      -0.070400
     12 C5          10.2700    21.5750    12.5280 c6         1 C6C      -0.071900
     13 C6           9.9570    22.3140    13.8540 c6         1 C6C      -0.066900
     14 OXT         16.3980    22.3220    16.2010 o          1 C6C      -0.825800
     15 H           13.5100    20.5720    18.0970 hn         1 C6C       0.334800
     16 H2          12.6520    21.8680    17.6730 hn         1 C6C       0.334800
     17 HA          14.6210    20.4880    15.9680 h1         1 C6C       0.048700
     18 HB2         14.3160    22.2410    14.2890 h1         1 C6C       0.060200
     19 HB3         12.7910    21.3910    14.5980 h1         1 C6C       0.060200
     20 H1           9.8470    24.3210    14.6600 h1         1 C6C       0.068700
     21 H21          8.2710    24.3070    12.8080 hc         1 C6C       0.046950
     22 H22          9.5220    25.4880    12.4520 hc         1 C6C       0.046950
     23 H31          8.9720    24.0730    10.4370 hc         1 C6C       0.041950
     24 H32         10.6590    23.8940    10.9000 hc         1 C6C       0.041950
     25 H41          8.3680    21.9330    11.5280 hc         1 C6C       0.026700
     26 H42          9.7080    21.6550    10.4210 hc         1 C6C       0.026700
     27 H51         10.0590    20.5030    12.6420 hc         1 C6C       0.041950
     28 H52         11.3400    21.6580    12.2950 hc         1 C6C       0.041950
     29 H61         10.5520    21.8950    14.6740 hc         1 C6C       0.046950
     30 H62          8.9080    22.1320    14.1280 hc         1 C6C       0.046950
@<TRIPOS>BOND
     1     1     2 1   
     2     1    15 1   
     3     1    16 1   
     4     2     3 1   
     5     2     5 1   
     6     2    17 1   
     7     3     4 1   
     8     3    14 1   
     9     5     6 1   
    10     5    18 1   
    11     5    19 1   
    12     6     7 1   
    13     7     8 1   
    14     8     9 1   
    15     8    13 1   
    16     8    20 1   
    17     9    10 1   
    18     9    21 1   
    19     9    22 1   
    20    10    11 1   
    21    10    23 1   
    22    10    24 1   
    23    11    12 1   
    24    11    25 1   
    25    11    26 1   
    26    12    13 1   
    27    12    27 1   
    28    12    28 1   
    29    13    29 1   
    30    13    30 1   
@<TRIPOS>SUBSTRUCTURE
     1 C6C         1 TEMP              0 ****  ****    0 ROOT
