@<TRIPOS>MOLECULE
C6C
   30    30     1     0     0
SMALL
bcc


@<TRIPOS>ATOM
      1 N           12.6800    21.1750    16.6260 n8         1 C6C      -0.894800
      2 CA          13.9960    21.5010    16.0930 c3         1 C6C       0.006500
      3 C           14.9370    22.2610    17.0720 c          1 C6C       0.905600
      4 O           14.7290    22.0860    18.2870 o          1 C6C      -0.825800
      5 CB          13.8650    22.1990    14.7480 c3         1 C6C       0.054700
      6 SG          13.2210    23.9010    14.9840 ss         1 C6C      -0.134100
      7 SD          12.1080    24.2620    13.3040 ss         1 C6C      -0.298100
      8 C1          10.3900    23.8120    13.7900 c6         1 C6C       0.039400
      9 C2           9.4640    24.3390    12.6930 c6         1 C6C      -0.066900
     10 C3           9.5870    23.5500    11.3920 c6         1 C6C      -0.071900
     11 C4           9.3810    22.0570    11.6300 c6         1 C6C      -0.070400
     12 C5          10.3300    21.5240    12.6990 c6         1 C6C      -0.071900
     13 C6          10.1990    22.3150    13.9950 c6         1 C6C      -0.066900
     14 OXT         15.8420    22.9440    16.5520 o          1 C6C      -0.825800
     15 H           12.8140    20.7940    17.5550 hn         1 C6C       0.334800
     16 H2          12.1770    22.0420    16.7790 hn         1 C6C       0.334800
     17 HA          14.4990    20.5480    15.8730 h1         1 C6C       0.048700
     18 HB2         14.8280    22.2630    14.2470 h1         1 C6C       0.060200
     19 HB3         13.1700    21.6640    14.1020 h1         1 C6C       0.060200
     20 H1          10.1920    24.3450    14.7220 h1         1 C6C       0.068700
     21 H21          8.4400    24.2540    13.0690 hc         1 C6C       0.046950
     22 H22          9.6420    25.4040    12.5220 hc         1 C6C       0.046950
     23 H31          8.8560    23.9230    10.6720 hc         1 C6C       0.041950
     24 H32         10.5710    23.7190    10.9420 hc         1 C6C       0.041950
     25 H41          8.3480    21.8860    11.9500 hc         1 C6C       0.026700
     26 H42          9.5130    21.5060    10.6960 hc         1 C6C       0.026700
     27 H51         10.1250    20.4690    12.8930 hc         1 C6C       0.041950
     28 H52         11.3610    21.5760    12.3380 hc         1 C6C       0.041950
     29 H61         10.8880    21.9390    14.7540 hc         1 C6C       0.046950
     30 H62          9.1920    22.1720    14.4020 hc         1 C6C       0.046950
@<TRIPOS>BOND
     1     1     2 1   
     2     1    15 1   
     3     1    16 1   
     4     2     3 1   
     5     2     5 1   
     6     2    17 1   
     7     3     4 1   
     8     3    14 1   
     9     5     6 1   
    10     5    18 1   
    11     5    19 1   
    12     6     7 1   
    13     7     8 1   
    14     8     9 1   
    15     8    13 1   
    16     8    20 1   
    17     9    10 1   
    18     9    21 1   
    19     9    22 1   
    20    10    11 1   
    21    10    23 1   
    22    10    24 1   
    23    11    12 1   
    24    11    25 1   
    25    11    26 1   
    26    12    13 1   
    27    12    27 1   
    28    12    28 1   
    29    13    29 1   
    30    13    30 1   
@<TRIPOS>SUBSTRUCTURE
     1 C6C         1 TEMP              0 ****  ****    0 ROOT
