@<TRIPOS>MOLECULE
C6D
   35    34     1     0     0
SMALL
bcc


@<TRIPOS>ATOM
      1 N            4.3390     1.8330    -0.4480 n8         1 C6D      -0.892800
      2 CA           4.2130     0.6870     0.4400 c3         1 C6D       0.014500
      3 C            5.4880    -0.1800     0.5870 c          1 C6D       0.902600
      4 O            6.3820    -0.0450    -0.2720 o          1 C6D      -0.839300
      5 CB           3.0550    -0.2080    -0.0110 c3         1 C6D      -0.048400
      6 CG           1.7030     0.4910    -0.0030 c3         1 C6D      -0.088400
      7 CD           0.5760    -0.4450    -0.4100 c3         1 C6D       0.213800
      8 NE          -0.7000     0.2340    -0.3290 nu         1 C6D      -0.834200
      9 CZ          -1.8570    -0.4410    -0.6210 c2         1 C6D       0.805100
     10 NH1         -1.8070    -1.5720    -1.2270 n2         1 C6D      -0.900100
     11 NH2         -2.9990     0.2390    -0.2660 nu         1 C6D      -0.894200
     12 C01         -5.3650     0.5100     0.2470 c3         1 C6D      -0.095400
     13 C02         -4.2790    -0.4350    -0.2410 c3         1 C6D       0.214800
     14 C03         -6.7140    -0.1800     0.2940 c3         1 C6D       0.141400
     15 O2          -7.6780     0.7410     0.7560 oh         1 C6D      -0.598800
     16 H1           4.9810     2.4970    -0.0330 hn         1 C6D       0.326800
     17 H2           4.8110     1.5200    -1.2890 hn         1 C6D       0.326800
     18 H4           3.9570     1.0690     1.4350 h1         1 C6D       0.032700
     19 H6           3.2680    -0.5890    -1.0180 hc         1 C6D       0.042200
     20 H7           3.0170    -1.0810     0.6460 hc         1 C6D       0.042200
     21 H8           1.5070     0.8770     1.0040 hc         1 C6D       0.038700
     22 H9           1.7270     1.3550    -0.6710 hc         1 C6D       0.038700
     23 H10          0.7330    -0.7900    -1.4340 h1         1 C6D       0.048200
     24 H11          0.5900    -1.3410     0.2250 h1         1 C6D       0.048200
     25 H12         -0.7630     0.9110     0.4160 hn         1 C6D       0.400800
     26 H13         -2.7330    -1.9340    -1.4160 hn         1 C6D       0.365400
     27 H14         -2.8860     0.9450     0.4460 hn         1 C6D       0.404800
     28 H15         -5.1080     0.8740     1.2480 hc         1 C6D       0.059700
     29 H16         -5.4150     1.3800    -0.4130 hc         1 C6D       0.059700
     30 H17         -4.5300    -0.7750    -1.2500 h1         1 C6D       0.034200
     31 H18         -4.2520    -1.3280     0.3980 h1         1 C6D       0.034200
     32 H19         -6.9650    -0.5530    -0.7080 h1         1 C6D       0.017200
     33 H20         -6.6510    -1.0570     0.9510 h1         1 C6D       0.017200
     34 H21         -8.5290     0.2940     0.7780 ho         1 C6D       0.401000
     35 O1           5.5000    -0.9770     1.5500 o          1 C6D      -0.839300
@<TRIPOS>BOND
     1     1     2 1   
     2     1    16 1   
     3     1    17 1   
     4     2     3 1   
     5     2     5 1   
     6     2    18 1   
     7     3     4 1   
     8     3    35 1   
     9     5     6 1   
    10     5    19 1   
    11     5    20 1   
    12     6     7 1   
    13     6    21 1   
    14     6    22 1   
    15     7     8 1   
    16     7    23 1   
    17     7    24 1   
    18     8     9 1   
    19     8    25 1   
    20     9    10 2   
    21     9    11 1   
    22    10    26 1   
    23    11    13 1   
    24    11    27 1   
    25    12    13 1   
    26    12    14 1   
    27    12    28 1   
    28    12    29 1   
    29    13    30 1   
    30    13    31 1   
    31    14    15 1   
    32    14    32 1   
    33    14    33 1   
    34    15    34 1   
@<TRIPOS>SUBSTRUCTURE
     1 C6D         1 TEMP              0 ****  ****    0 ROOT
