@<TRIPOS>MOLECULE
C6D
   35    34     1     0     0
SMALL
No Charge or Current Charge


@<TRIPOS>ATOM
      1 N            4.2130     2.0980    -0.2540 n8         1 C6D      -1.003200
      2 CA           4.2320     0.7540     0.4340 c3         1 C6D       0.014500
      3 C            5.6270    -0.0010     0.4430 c          1 C6D       0.692000
      4 O            6.2280    -0.1280    -0.6160 o          1 C6D      -0.734000
      5 CB           3.1230    -0.1760    -0.1290 c3         1 C6D      -0.048400
      6 CG           1.6770     0.3170     0.1280 c3         1 C6D      -0.088400
      7 CD           0.6100    -0.6650    -0.3980 c3         1 C6D       0.213800
      8 NE          -0.7410    -0.1560    -0.1260 nu         1 C6D      -0.889400
      9 CZ          -1.8610    -0.7970    -0.4600 c2         1 C6D       0.805100
     10 NH1         -1.9110    -1.9060    -1.0400 n2         1 C6D      -0.900100
     11 NH2         -2.9370    -0.1040    -0.0880 nu         1 C6D      -0.949400
     12 C01         -5.2990     0.5090     0.3100 c3         1 C6D      -0.095400
     13 C02         -4.3290    -0.5400    -0.2610 c3         1 C6D       0.214800
     14 C03         -6.7730     0.0880     0.1630 c3         1 C6D       0.164600
     15 O2          -7.6220     1.1020     0.7090 oh         1 C6D      -0.661000
     16 H1           4.9190     2.7050     0.1810 hn         1 C6D       0.382000
     17 H2           4.5710     1.9740    -1.2090 hn         1 C6D       0.382000
     18 H4           3.9850     0.9430     1.4880 h1         1 C6D       0.032700
     19 H6           3.2760    -0.3180    -1.2060 hc         1 C6D       0.042200
     20 H7           3.2350    -1.1650     0.3330 hc         1 C6D       0.042200
     21 H8           1.5340     0.4620     1.2060 hc         1 C6D       0.038700
     22 H9           1.5300     1.2920    -0.3530 hc         1 C6D       0.038700
     23 H10          0.7480    -0.8030    -1.4800 h1         1 C6D       0.048200
     24 H11          0.7480    -1.6420     0.0870 h1         1 C6D       0.048200
     25 H12         -0.8480     0.4260     0.6940 hn         1 C6D       0.456000
     26 H13         -2.9060    -2.1170    -1.1440 hn         1 C6D       0.365400
     27 H14         -2.7740     0.8940    -0.0520 hn         1 C6D       0.460000
     28 H15         -5.0760     0.6680     1.3720 hc         1 C6D       0.059700
     29 H16         -5.1450     1.4650    -0.2050 hc         1 C6D       0.059700
     30 H17         -4.5460    -0.6900    -1.3280 h1         1 C6D       0.034200
     31 H18         -4.4880    -1.4970     0.2570 h1         1 C6D       0.034200
     32 H19         -7.0010    -0.0670    -0.9000 h1         1 C6D       0.017200
     33 H20         -6.9330    -0.8640     0.6860 h1         1 C6D       0.017200
     34 H21         -8.5480     0.7920     0.5940 ho         1 C6D       0.440000
     35 O1           6.1010    -0.3300     1.5220 o          1 C6D      -0.734000
@<TRIPOS>BOND
     1     1     2 1   
     2     1    16 1   
     3     1    17 1   
     4     2     3 1   
     5     2     5 1   
     6     2    18 1   
     7     3     4 1   
     8     3    35 1   
     9     5     6 1   
    10     5    19 1   
    11     5    20 1   
    12     6     7 1   
    13     6    21 1   
    14     6    22 1   
    15     7     8 1   
    16     7    23 1   
    17     7    24 1   
    18     8     9 1   
    19     8    25 1   
    20     9    10 2   
    21     9    11 1   
    22    10    26 1   
    23    11    13 1   
    24    11    27 1   
    25    12    13 1   
    26    12    14 1   
    27    12    28 1   
    28    12    29 1   
    29    13    30 1   
    30    13    31 1   
    31    14    15 1   
    32    14    32 1   
    33    14    33 1   
    34    15    34 1   
@<TRIPOS>SUBSTRUCTURE
     1 C6D         1 TEMP              0 ****  ****    0 ROOT
