@<TRIPOS>MOLECULE
C6F
   84    88     1     0     0
SMALL
abcg2


@<TRIPOS>ATOM
      1 C1          -7.7190     2.2260    -1.4660 c3         1 C6F      -0.092100
      2 C2          -7.4460     1.7030    -0.0550 c3         1 C6F      -0.108700
      3 C3          -6.2510     0.7970    -0.0010 ca         1 C6F       0.188300
      4 C5          -5.4030    -1.3520    -0.0430 ca         1 C6F       0.086500
      5 C6          -5.7260    -2.7900    -0.1140 c          1 C6F       0.542600
      6 C11         -1.6530    -1.3700     0.0720 ca         1 C6F       0.331000
      7 C12         -1.1110    -0.2220     0.6350 ca         1 C6F      -0.149000
      8 C16          3.0870     0.0310     1.1780 c6         1 C6F       0.191800
      9 C17          4.5870    -0.1900     1.3210 c6         1 C6F      -0.091900
     10 C18          5.2980     0.0690    -0.0050 c6         1 C6F       0.191500
     11 C19          4.6610    -0.8020    -1.0920 c6         1 C6F      -0.091900
     12 C23          8.7360    -1.3380     0.6300 c6         1 C6F       0.162300
     13 C27          7.4820     0.6670    -0.9000 c6         1 C6F       0.172300
     14 C30          0.9650    -4.2690    -1.4530 c3         1 C6F       0.143900
     15 C31         -0.7840    -2.3380    -0.4510 ca         1 C6F      -0.236000
     16 C33         -4.9090     1.2930     0.0450 ca         1 C6F       0.654900
     17 C35         -3.3320     3.1810     0.1850 c6         1 C6F       0.233500
     18 C36         -2.8880     3.2850     1.6440 c6         1 C6F      -0.131400
     19 C37         -1.5350     3.9740     1.7260 c6         1 C6F       0.156600
     20 C39         -1.9110     5.1870    -0.2410 c6         1 C6F       0.156600
     21 C40         -3.2830     4.5640    -0.4550 c6         1 C6F      -0.131400
     22 N4          -6.4280    -0.4940    -0.0420 nb         1 C6F      -0.593000
     23 O7          -4.8470    -3.6610    -0.1480 o          1 C6F      -0.665100
     24 N8          -7.0300    -3.0880    -0.1330 nt         1 C6F      -0.580000
     25 C9          -4.0850    -0.8460     0.0140 ca         1 C6F       0.688900
     26 C13          0.2700    -0.0470     0.6400 ca         1 C6F      -0.110000
     27 C14          1.1500    -0.9890     0.1270 ca         1 C6F       0.209000
     28 N15          2.5490    -0.8440     0.1540 nh         1 C6F      -0.759400
     29 C20          3.1570    -0.5790    -1.1460 c6         1 C6F       0.191800
     30 N21          6.7450    -0.0330     0.1330 n3         1 C6F      -0.734600
     31 C22          7.2620    -1.3810     0.2750 c6         1 C6F       0.172300
     32 N24          9.4850    -0.6300    -0.3880 n3         1 C6F      -0.717600
     33 C25         10.9010    -0.6210    -0.1020 c3         1 C6F       0.153100
     34 C26          8.9590     0.7110    -0.5490 c6         1 C6F       0.162300
     35 C28          0.5900    -2.1680    -0.4130 ca         1 C6F       0.158100
     36 N32         -3.8780     0.4650     0.0640 nb         1 C6F      -0.823000
     37 N34         -4.6560     2.6130     0.0460 nu         1 C6F      -0.917100
     38 O38         -1.5590     5.2500     1.1240 os         1 C6F      -0.449000
     39 H1          -6.8660     2.7720    -1.8690 hc         1 C6F       0.037367
     40 H2          -7.9370     1.4020    -2.1460 hc         1 C6F       0.037367
     41 H3          -8.5760     2.9000    -1.4690 hc         1 C6F       0.037367
     42 H4          -7.3270     2.5430     0.6370 hc         1 C6F       0.049700
     43 H5          -8.3110     1.1420     0.3000 hc         1 C6F       0.049700
     44 H6          -3.2630    -2.6540    -0.0860 hn         1 C6F       0.546000
     45 H7          -1.7430     0.5400     1.0600 ha         1 C6F       0.135000
     46 H8           2.5900    -0.1850     2.1260 h1         1 C6F       0.033700
     47 H9           2.9040     1.0950     0.9520 h1         1 C6F       0.033700
     48 H10          4.9820     0.4770     2.0910 hc         1 C6F       0.053200
     49 H11          4.7590    -1.2170     1.6550 hc         1 C6F       0.053200
     50 H12          5.0960     1.1160    -0.2710 h1         1 C6F       0.047700
     51 H13          5.0880    -0.5770    -2.0730 hc         1 C6F       0.053200
     52 H14          4.8470    -1.8600    -0.8880 hc         1 C6F       0.053200
     53 H15          8.8550    -0.8680     1.6220 h1         1 C6F       0.036200
     54 H16          9.1150    -2.3600     0.7100 h1         1 C6F       0.036200
     55 H17          7.3690     0.2000    -1.8930 h1         1 C6F       0.037450
     56 H18          7.1080     1.6910    -0.9800 h1         1 C6F       0.037450
     57 H19          1.8310    -4.8530    -1.7550 h1         1 C6F       0.040700
     58 H20          0.3750    -4.8570    -0.7450 h1         1 C6F       0.040700
     59 H21          0.3540    -4.0670    -2.3370 h1         1 C6F       0.040700
     60 H22         -1.2120    -3.2380    -0.8750 ha         1 C6F       0.124000
     61 H23         -2.6370     2.5270    -0.3480 h1         1 C6F       0.087700
     62 H24         -3.6300     3.8540     2.2120 hc         1 C6F       0.056700
     63 H25         -2.8190     2.2940     2.0990 hc         1 C6F       0.056700
     64 H26         -1.2370     4.1160     2.7650 h1         1 C6F       0.048200
     65 H27         -0.7690     3.3410     1.2500 h1         1 C6F       0.048200
     66 H28         -1.1590     4.6120    -0.8020 h1         1 C6F       0.048200
     67 H29         -1.8930     6.2080    -0.6240 h1         1 C6F       0.048200
     68 H30         -3.4880     4.4970    -1.5260 hc         1 C6F       0.056700
     69 H31         -4.0520     5.2070    -0.0130 hc         1 C6F       0.056700
     70 H32         -7.7200    -2.3570    -0.1140 hn         1 C6F       0.326500
     71 H33         -7.3320    -4.0450    -0.2020 hn         1 C6F       0.326500
     72 H34          0.6620     0.8660     1.0700 ha         1 C6F       0.111000
     73 H35          2.9500     0.4570    -1.4620 h1         1 C6F       0.033700
     74 H36          2.7160    -1.2310    -1.8980 h1         1 C6F       0.033700
     75 H38          7.1410    -1.9720    -0.6470 h1         1 C6F       0.037450
     76 H39          6.7250    -1.9060     1.0670 h1         1 C6F       0.037450
     77 H41         11.2790    -1.6440    -0.0500 h1         1 C6F       0.029367
     78 H42         11.4410    -0.1060    -0.8970 h1         1 C6F       0.029367
     79 H43         11.1500    -0.1230     0.8490 h1         1 C6F       0.029367
     80 H44          9.5050     1.2170    -1.3490 h1         1 C6F       0.036200
     81 H45          9.0910     1.3110     0.3680 h1         1 C6F       0.036200
     82 H46         -5.4330     3.2480     0.1330 hn         1 C6F       0.497000
     83 N10         -3.0130    -1.6770     0.0270 nu         1 C6F      -0.928900
     84 O29          1.4640    -3.0830    -0.8720 os         1 C6F      -0.325100
@<TRIPOS>BOND
     1     1     2 1   
     2     1    39 1   
     3     1    40 1   
     4     1    41 1   
     5     2     3 1   
     6     2    42 1   
     7     2    43 1   
     8     3    16 ar  
     9     3    22 ar  
    10     4     5 1   
    11     4    22 ar  
    12     4    25 ar  
    13     5    23 2   
    14     5    24 1   
    15     6     7 ar  
    16     6    15 ar  
    17     6    83 1   
    18     7    26 ar  
    19     7    45 1   
    20     8     9 1   
    21     8    28 1   
    22     8    46 1   
    23     8    47 1   
    24     9    10 1   
    25     9    48 1   
    26     9    49 1   
    27    10    11 1   
    28    10    30 1   
    29    10    50 1   
    30    11    29 1   
    31    11    51 1   
    32    11    52 1   
    33    12    31 1   
    34    12    32 1   
    35    12    53 1   
    36    12    54 1   
    37    13    30 1   
    38    13    34 1   
    39    13    55 1   
    40    13    56 1   
    41    14    57 1   
    42    14    58 1   
    43    14    59 1   
    44    14    84 1   
    45    15    35 ar  
    46    15    60 1   
    47    16    36 ar  
    48    16    37 1   
    49    17    18 1   
    50    17    21 1   
    51    17    37 1   
    52    17    61 1   
    53    18    19 1   
    54    18    62 1   
    55    18    63 1   
    56    19    38 1   
    57    19    64 1   
    58    19    65 1   
    59    20    21 1   
    60    20    38 1   
    61    20    66 1   
    62    20    67 1   
    63    21    68 1   
    64    21    69 1   
    65    24    70 1   
    66    24    71 1   
    67    25    36 ar  
    68    25    83 1   
    69    26    27 ar  
    70    26    72 1   
    71    27    28 1   
    72    27    35 ar  
    73    28    29 1   
    74    29    73 1   
    75    29    74 1   
    76    30    31 1   
    77    31    75 1   
    78    31    76 1   
    79    32    33 1   
    80    32    34 1   
    81    33    77 1   
    82    33    78 1   
    83    33    79 1   
    84    34    80 1   
    85    34    81 1   
    86    35    84 1   
    87    37    82 1   
    88    44    83 1   
@<TRIPOS>SUBSTRUCTURE
     1 C6F         1 TEMP              0 ****  ****    0 ROOT
