@<TRIPOS>MOLECULE
C6F
   84    88     1     0     0
SMALL
No Charge or Current Charge


@<TRIPOS>ATOM
      1 C1          -8.0920     1.9030    -1.4850 c3         1 C6F      -0.092100
      2 C2          -7.6710     1.4900    -0.0600 c3         1 C6F      -0.108700
      3 C3          -6.3880     0.6580    -0.0410 ca         1 C6F       0.188300
      4 C5          -5.4050    -1.4320     0.0470 ca         1 C6F       0.086500
      5 C6          -5.5120    -2.9490     0.0930 c          1 C6F       0.542600
      6 C11         -1.5650    -1.1880     0.0410 ca         1 C6F       0.331000
      7 C12         -1.0710    -0.0410     0.6850 ca         1 C6F      -0.149000
      8 C16          3.2420     0.2780     1.3140 c6         1 C6F       0.191800
      9 C17          4.7190    -0.1570     1.4410 c6         1 C6F      -0.091900
     10 C18          5.5070     0.1860     0.1500 c6         1 C6F       0.191500
     11 C19          4.8110    -0.4840    -1.0700 c6         1 C6F      -0.091900
     12 C23          8.8380    -1.8050     0.6420 c6         1 C6F       0.162300
     13 C27          7.7930     0.4840    -0.8160 c6         1 C6F       0.172300
     14 C30          1.2080    -3.9110    -1.7940 c3         1 C6F       0.143900
     15 C31         -0.6660    -2.0800    -0.5560 ca         1 C6F      -0.236000
     16 C33         -5.0770     1.2510    -0.1050 ca         1 C6F       0.654900
     17 C35         -3.5820     3.3150     0.0690 c6         1 C6F       0.233500
     18 C36         -3.3520     3.4410     1.5940 c6         1 C6F      -0.131400
     19 C37         -2.0870     4.2840     1.8700 c6         1 C6F       0.156600
     20 C39         -2.3390     5.5040    -0.2080 c6         1 C6F       0.156600
     21 C40         -3.6170     4.7170    -0.5810 c6         1 C6F      -0.131400
     22 N4          -6.5630    -0.6900     0.0320 nb         1 C6F      -0.593000
     23 O7          -4.5540    -3.7080     0.0370 o          1 C6F      -0.665100
     24 N8          -6.7530    -3.4780     0.1900 nt         1 C6F      -0.580000
     25 C9          -4.1130    -0.8080     0.0030 ca         1 C6F       0.688900
     26 C13          0.3070     0.2320     0.7030 ca         1 C6F      -0.110000
     27 C14          1.2230    -0.6430     0.0860 ca         1 C6F       0.209000
     28 N15          2.6130    -0.3350     0.1140 nh         1 C6F      -0.759400
     29 C20          3.3310    -0.0480    -1.1570 c6         1 C6F       0.191800
     30 N21          6.9700    -0.1170     0.2820 n3         1 C6F      -0.734600
     31 C22          7.3050    -1.5730     0.4370 c6         1 C6F       0.172300
     32 N24          9.6610    -1.2000    -0.4500 n3         1 C6F      -0.717600
     33 C25         11.1090    -1.4340    -0.2720 c3         1 C6F       0.153100
     34 C26          9.3230     0.2490    -0.6030 c6         1 C6F       0.162300
     35 C28          0.7250    -1.8190    -0.5480 ca         1 C6F       0.158100
     36 N32         -3.9500     0.5200    -0.0890 nb         1 C6F      -0.823000
     37 N34         -4.8530     2.6240    -0.1970 nu         1 C6F      -0.917100
     38 O38         -2.2090     5.5720     1.2280 os         1 C6F      -0.449000
     39 H1          -7.3140     2.5080    -1.9660 hc         1 C6F       0.037367
     40 H2          -8.2720     1.0170    -2.1060 hc         1 C6F       0.037367
     41 H3          -9.0160     2.4940    -1.4560 hc         1 C6F       0.037367
     42 H4          -7.5500     2.3900     0.5560 hc         1 C6F       0.049700
     43 H5          -8.4950     0.9280     0.3980 hc         1 C6F       0.049700
     44 H6          -3.1110    -2.5160    -0.0790 hn         1 C6F       0.546000
     45 H7          -1.7470     0.6400     1.1890 ha         1 C6F       0.135000
     46 H8           2.7060    -0.0290     2.2250 h1         1 C6F       0.033700
     47 H9           3.1880     1.3750     1.2500 h1         1 C6F       0.033700
     48 H10          5.1770     0.3410     2.3050 hc         1 C6F       0.053200
     49 H11          4.7500    -1.2360     1.6410 hc         1 C6F       0.053200
     50 H12          5.4070     1.2740     0.0120 h1         1 C6F       0.047700
     51 H13          5.3140    -0.2140    -2.0060 hc         1 C6F       0.053200
     52 H14          4.8550    -1.5770    -0.9870 hc         1 C6F       0.053200
     53 H15          9.1280    -1.3760     1.6130 h1         1 C6F       0.036200
     54 H16          9.0240    -2.8870     0.7020 h1         1 C6F       0.036200
     55 H17          7.5170     0.0490    -1.7880 h1         1 C6F       0.037450
     56 H18          7.6100     1.5660    -0.8830 h1         1 C6F       0.037450
     57 H19          2.0820    -4.4490    -2.1830 h1         1 C6F       0.040700
     58 H20          0.6840    -4.5770    -1.0960 h1         1 C6F       0.040700
     59 H21          0.5440    -3.6880    -2.6380 h1         1 C6F       0.040700
     60 H22         -1.0630    -2.9700    -1.0330 ha         1 C6F       0.124000
     61 H23         -2.7350     2.7660    -0.3760 h1         1 C6F       0.087700
     62 H24         -4.2190     3.9170     2.0730 hc         1 C6F       0.056700
     63 H25         -3.2440     2.4490     2.0500 hc         1 C6F       0.056700
     64 H26         -1.9610     4.4320     2.9520 h1         1 C6F       0.048200
     65 H27         -1.1920     3.7690     1.4880 h1         1 C6F       0.048200
     66 H28         -1.4490     5.0160    -0.6330 h1         1 C6F       0.048200
     67 H29         -2.3950     6.5250    -0.6120 h1         1 C6F       0.048200
     68 H30         -3.6920     4.6260    -1.6730 hc         1 C6F       0.056700
     69 H31         -4.4990     5.2770    -0.2440 hc         1 C6F       0.056700
     70 H32         -7.5500    -2.8570     0.2270 hn         1 C6F       0.326500
     71 H33         -6.8710    -4.4800     0.2180 hn         1 C6F       0.326500
     72 H34          0.6590     1.1330     1.1960 ha         1 C6F       0.111000
     73 H35          3.2810     1.0290    -1.3750 h1         1 C6F       0.033700
     74 H36          2.8560    -0.5710    -1.9990 h1         1 C6F       0.033700
     75 H38          6.9930    -2.1370    -0.4530 h1         1 C6F       0.037450
     76 H39          6.7810    -2.0090     1.2980 h1         1 C6F       0.037450
     77 H41         11.3230    -2.5100    -0.2150 h1         1 C6F       0.029367
     78 H42         11.6750    -1.0200    -1.1180 h1         1 C6F       0.029367
     79 H43         11.4730    -0.9610     0.6500 h1         1 C6F       0.029367
     80 H44          9.8660     0.6780    -1.4570 h1         1 C6F       0.036200
     81 H45          9.6400     0.8070     0.2920 h1         1 C6F       0.036200
     82 H46         -5.6990     3.1840    -0.2450 hn         1 C6F       0.497000
     83 N10         -2.9190    -1.5130     0.0100 nu         1 C6F      -0.928900
     84 O29          1.6220    -2.7030    -1.1350 os         1 C6F      -0.325100
@<TRIPOS>BOND
     1     1     2 1   
     2     1    39 1   
     3     1    40 1   
     4     1    41 1   
     5     2     3 1   
     6     2    42 1   
     7     2    43 1   
     8     3    16 ar  
     9     3    22 ar  
    10     4     5 1   
    11     4    22 ar  
    12     4    25 ar  
    13     5    23 2   
    14     5    24 1   
    15     6     7 ar  
    16     6    15 ar  
    17     6    83 1   
    18     7    26 ar  
    19     7    45 1   
    20     8     9 1   
    21     8    28 1   
    22     8    46 1   
    23     8    47 1   
    24     9    10 1   
    25     9    48 1   
    26     9    49 1   
    27    10    11 1   
    28    10    30 1   
    29    10    50 1   
    30    11    29 1   
    31    11    51 1   
    32    11    52 1   
    33    12    31 1   
    34    12    32 1   
    35    12    53 1   
    36    12    54 1   
    37    13    30 1   
    38    13    34 1   
    39    13    55 1   
    40    13    56 1   
    41    14    57 1   
    42    14    58 1   
    43    14    59 1   
    44    14    84 1   
    45    15    35 ar  
    46    15    60 1   
    47    16    36 ar  
    48    16    37 1   
    49    17    18 1   
    50    17    21 1   
    51    17    37 1   
    52    17    61 1   
    53    18    19 1   
    54    18    62 1   
    55    18    63 1   
    56    19    38 1   
    57    19    64 1   
    58    19    65 1   
    59    20    21 1   
    60    20    38 1   
    61    20    66 1   
    62    20    67 1   
    63    21    68 1   
    64    21    69 1   
    65    24    70 1   
    66    24    71 1   
    67    25    36 ar  
    68    25    83 1   
    69    26    27 ar  
    70    26    72 1   
    71    27    28 1   
    72    27    35 ar  
    73    28    29 1   
    74    29    73 1   
    75    29    74 1   
    76    30    31 1   
    77    31    75 1   
    78    31    76 1   
    79    32    33 1   
    80    32    34 1   
    81    33    77 1   
    82    33    78 1   
    83    33    79 1   
    84    34    80 1   
    85    34    81 1   
    86    35    84 1   
    87    37    82 1   
    88    44    83 1   
@<TRIPOS>SUBSTRUCTURE
     1 C6F         1 TEMP              0 ****  ****    0 ROOT
