@<TRIPOS>MOLECULE
C6H
   62    65     1     0     0
SMALL
No Charge or Current Charge


@<TRIPOS>ATOM
      1 C01          4.6850    -3.3270     1.5160 c3         1 C6H       0.159900
      2 O02          3.8270    -2.4630     0.7520 os         1 C6H      -0.352100
      3 C03          4.2080    -1.1640     0.5100 ca         1 C6H       0.226100
      4 C04          3.4260    -0.0880     0.9870 ca         1 C6H      -0.219600
      5 C05          2.1970    -0.3550     1.8020 c          1 C6H       0.592700
      6 O06          2.2450    -1.0400     2.8170 o          1 C6H      -0.517100
      7 C07          0.8730     0.2730     1.3450 c3         1 C6H      -0.175400
      8 C08          0.0440    -0.7350     0.5120 c3         1 C6H      -0.063400
      9 C09         -1.2450    -0.1530    -0.1470 c6         1 C6H      -0.061700
     10 C10         -1.9280    -1.2030    -1.0610 c6         1 C6H      -0.073900
     11 C11         -3.2210    -0.6400    -1.6980 c6         1 C6H       0.173300
     12 N12         -4.1860    -0.1690    -0.6670 n3         1 C6H      -0.728600
     13 C13         -5.4750     0.2520    -1.2760 c3         1 C6H       0.177800
     14 C14         -6.6460     0.5620    -0.2890 c6         1 C6H      -0.059700
     15 C15         -7.9290     0.9680    -1.0660 c6         1 C6H      -0.069900
     16 C16         -9.1020     1.2890    -0.1060 c6         1 C6H      -0.072900
     17 C17         -9.3920     0.0980     0.8400 c6         1 C6H      -0.074400
     18 C18         -8.1220    -0.3140     1.6230 c6         1 C6H      -0.072900
     19 C19         -6.9480    -0.6330     0.6630 c6         1 C6H      -0.069900
     20 C20         -3.5680     0.8730     0.2040 c6         1 C6H       0.173300
     21 C21         -2.2780     0.3610     0.8910 c6         1 C6H      -0.073900
     22 C22          3.8170     1.2500     0.7020 ca         1 C6H      -0.045000
     23 C23          4.9740     1.5150    -0.0600 ca         1 C6H       0.079000
     24 Cl           5.4560     3.1710    -0.4160 cl         1 C6H      -0.201000
     25 C25          5.7190     0.4250    -0.5310 ca         1 C6H      -0.019200
     26 N26          6.8630     0.4220    -1.3180 na         1 C6H      -0.206700
     27 C27          7.2550    -0.9040    -1.6030 cc         1 C6H      -0.168100
     28 C28          6.3120    -1.6870    -0.9540 cd         1 C6H      -0.214200
     29 C29          5.3460    -0.8630    -0.2620 ca         1 C6H      -0.141800
     30 H1           4.2250    -4.3160     1.6290 h1         1 C6H       0.040700
     31 H2           5.6590    -3.4580     1.0340 h1         1 C6H       0.040700
     32 H3           4.8510    -2.9120     2.5190 h1         1 C6H       0.040700
     33 H4           0.2980     0.5790     2.2270 hc         1 C6H       0.060700
     34 H5           1.0760     1.1340     0.6980 hc         1 C6H       0.060700
     35 H6           0.6940    -1.1380    -0.2760 hc         1 C6H       0.053700
     36 H7          -0.2190    -1.5880     1.1510 hc         1 C6H       0.053700
     37 H8          -0.9250     0.6920    -0.7730 hc         1 C6H       0.041700
     38 H9          -1.2390    -1.5190    -1.8560 hc         1 C6H       0.046200
     39 H10         -2.1720    -2.1050    -0.4820 hc         1 C6H       0.046200
     40 H11         -2.9570     0.1850    -2.3760 h1         1 C6H       0.028450
     41 H12         -3.6780    -1.4290    -2.3130 h1         1 C6H       0.028450
     42 H14         -5.3120     1.1420    -1.8990 h1         1 C6H       0.028200
     43 H15         -5.8270    -0.5430    -1.9480 h1         1 C6H       0.028200
     44 H16         -6.3380     1.4250     0.3160 hc         1 C6H       0.044700
     45 H17         -7.7240     1.8440    -1.6970 hc         1 C6H       0.041700
     46 H18         -8.2250     0.1580    -1.7480 hc         1 C6H       0.041700
     47 H19         -8.8610     2.1820     0.4870 hc         1 C6H       0.036700
     48 H20        -10.0020     1.5320    -0.6850 hc         1 C6H       0.036700
     49 H21        -10.1930     0.3660     1.5420 hc         1 C6H       0.036700
     50 H22         -9.7610    -0.7570     0.2560 hc         1 C6H       0.036700
     51 H23         -7.8300     0.4950     2.3070 hc         1 C6H       0.036700
     52 H24         -8.3390    -1.1900     2.2500 hc         1 C6H       0.036700
     53 H25         -7.1880    -1.5280     0.0720 hc         1 C6H       0.041700
     54 H26         -6.0570    -0.8820     1.2550 hc         1 C6H       0.041700
     55 H27         -3.3280     1.7690    -0.3890 h1         1 C6H       0.028450
     56 H28         -4.2650     1.1850     0.9930 h1         1 C6H       0.028450
     57 H29         -2.5350    -0.4420     1.5950 hc         1 C6H       0.046200
     58 H30         -1.8500     1.1770     1.4880 hc         1 C6H       0.046200
     59 H31          3.2310     2.0860     1.0780 ha         1 C6H       0.128000
     60 H32          7.3360     1.2590    -1.6450 hn         1 C6H       0.361000
     61 H33          8.1150    -1.1610    -2.2180 h4         1 C6H       0.218000
     62 H34          6.2990    -2.7740    -0.9920 ha         1 C6H       0.215000
@<TRIPOS>BOND
     1     1     2 1   
     2     1    30 1   
     3     1    31 1   
     4     1    32 1   
     5     2     3 1   
     6     3     4 ar  
     7     3    29 ar  
     8     4     5 1   
     9     4    22 ar  
    10     5     6 2   
    11     5     7 1   
    12     7     8 1   
    13     7    33 1   
    14     7    34 1   
    15     8     9 1   
    16     8    35 1   
    17     8    36 1   
    18     9    10 1   
    19     9    21 1   
    20     9    37 1   
    21    10    11 1   
    22    10    38 1   
    23    10    39 1   
    24    11    12 1   
    25    11    40 1   
    26    11    41 1   
    27    12    13 1   
    28    12    20 1   
    29    13    14 1   
    30    13    42 1   
    31    13    43 1   
    32    14    15 1   
    33    14    19 1   
    34    14    44 1   
    35    15    16 1   
    36    15    45 1   
    37    15    46 1   
    38    16    17 1   
    39    16    47 1   
    40    16    48 1   
    41    17    18 1   
    42    17    49 1   
    43    17    50 1   
    44    18    19 1   
    45    18    51 1   
    46    18    52 1   
    47    19    53 1   
    48    19    54 1   
    49    20    21 1   
    50    20    55 1   
    51    20    56 1   
    52    21    57 1   
    53    21    58 1   
    54    22    23 ar  
    55    22    59 1   
    56    23    24 1   
    57    23    25 ar  
    58    25    26 1   
    59    25    29 ar  
    60    26    27 1   
    61    26    60 1   
    62    27    28 2   
    63    27    61 1   
    64    28    29 1   
    65    28    62 1   
@<TRIPOS>SUBSTRUCTURE
     1 C6H         1 TEMP              0 ****  ****    0 ROOT
