@<TRIPOS>MOLECULE
C6H
   62    65     1     0     0
SMALL
bcc


@<TRIPOS>ATOM
      1 C01          4.9980    -3.0180     1.7000 c3         1 C6H       0.136700
      2 O02          4.7010    -2.5080     0.4060 os         1 C6H      -0.328900
      3 C03          4.5700    -1.1650     0.3330 ca         1 C6H       0.226100
      4 C04          3.3230    -0.5380     0.2680 ca         1 C6H      -0.219600
      5 C05          2.0560    -1.3160     0.3530 c          1 C6H       0.592700
      6 O06          2.0130    -2.4050     0.8830 o          1 C6H      -0.517100
      7 C07          0.8120    -0.7010    -0.2510 c3         1 C6H      -0.175400
      8 C08         -0.3620    -1.6640    -0.3370 c3         1 C6H      -0.063400
      9 C09         -1.6100    -1.0570    -0.9740 c6         1 C6H      -0.061700
     10 C10         -2.6950    -2.1180    -1.1360 c6         1 C6H      -0.073900
     11 C11         -3.9840    -1.5320    -1.6880 c6         1 C6H       0.173300
     12 N12         -4.4700    -0.4650    -0.8360 n3         1 C6H      -0.728600
     13 C13         -5.7850     0.0060    -1.2200 c3         1 C6H       0.177800
     14 C14         -6.5350     0.7170    -0.0960 c6         1 C6H      -0.059700
     15 C15         -7.8980     1.2000    -0.5910 c6         1 C6H      -0.069900
     16 C16         -8.6930     1.8920     0.5130 c6         1 C6H      -0.072900
     17 C17         -8.8500     0.9900     1.7330 c6         1 C6H      -0.074400
     18 C18         -7.4920     0.5100     2.2350 c6         1 C6H      -0.072900
     19 C19         -6.7020    -0.1810     1.1290 c6         1 C6H      -0.069900
     20 C20         -3.4960     0.6040    -0.7530 c6         1 C6H       0.173300
     21 C21         -2.1790     0.1110    -0.1720 c6         1 C6H      -0.073900
     22 C22          3.2600     0.8660     0.1030 ca         1 C6H      -0.063000
     23 C23          4.3910     1.6390     0.0450 ca         1 C6H      -0.012600
     24 CL           4.3110     3.3570    -0.1270 cl         1 C6H      -0.109400
     25 C25          5.6330     1.0120     0.1170 ca         1 C6H      -0.019200
     26 N26          6.8900     1.5130     0.0570 na         1 C6H      -0.156400
     27 C27          7.7890     0.4840     0.1390 cc         1 C6H      -0.118100
     28 C28          7.1260    -0.7010     0.2540 cd         1 C6H      -0.164200
     29 C29          5.7310    -0.3870     0.2490 ca         1 C6H      -0.141800
     30 H1           5.1280    -4.0930     1.5930 h1         1 C6H       0.040700
     31 H2           5.9210    -2.5920     2.1020 h1         1 C6H       0.040700
     32 H3           4.1830    -2.8270     2.3990 h1         1 C6H       0.040700
     33 H4           0.5400     0.1730     0.3510 hc         1 C6H       0.060700
     34 H5           1.0590    -0.3040    -1.2420 hc         1 C6H       0.060700
     35 H6          -0.0630    -2.5440    -0.9140 hc         1 C6H       0.053700
     36 H7          -0.6190    -2.0270     0.6630 hc         1 C6H       0.053700
     37 H8          -1.3490    -0.6850    -1.9740 hc         1 C6H       0.041700
     38 H9          -2.3470    -2.9200    -1.7930 hc         1 C6H       0.046200
     39 H10         -2.9030    -2.5710    -0.1600 hc         1 C6H       0.046200
     40 H11         -3.8130    -1.1830    -2.7240 h1         1 C6H       0.028450
     41 H12         -4.7480    -2.3120    -1.7440 h1         1 C6H       0.028450
     42 H14         -5.7400     0.6670    -2.1050 h1         1 C6H       0.028200
     43 H15         -6.3800    -0.8630    -1.5210 h1         1 C6H       0.028200
     44 H16         -5.9680     1.6060     0.2120 hc         1 C6H       0.044700
     45 H17         -7.7700     1.8760    -1.4410 hc         1 C6H       0.041700
     46 H18         -8.4700     0.3390    -0.9600 hc         1 C6H       0.041700
     47 H19         -8.1750     2.8120     0.8090 hc         1 C6H       0.036700
     48 H20         -9.6720     2.1970     0.1360 hc         1 C6H       0.036700
     49 H21         -9.3880     1.5150     2.5270 hc         1 C6H       0.036700
     50 H22         -9.4640     0.1230     1.4630 hc         1 C6H       0.036700
     51 H23         -6.9200     1.3690     2.6030 hc         1 C6H       0.036700
     52 H24         -7.6180    -0.1650     3.0860 hc         1 C6H       0.036700
     53 H25         -7.2240    -1.0970     0.8250 hc         1 C6H       0.041700
     54 H26         -5.7210    -0.4930     1.4940 hc         1 C6H       0.041700
     55 H27         -3.3110     1.0500    -1.7490 h1         1 C6H       0.028450
     56 H28         -3.8880     1.4050    -0.1220 h1         1 C6H       0.028450
     57 H29         -2.3430    -0.2060     0.8640 hc         1 C6H       0.046200
     58 H30         -1.4750     0.9460    -0.1420 hc         1 C6H       0.046200
     59 H31          2.3000     1.3590     0.0400 ha         1 C6H       0.146000
     60 H32          7.1290     2.4860    -0.0440 hn         1 C6H       0.310700
     61 H33          8.8480     0.6830     0.1070 h4         1 C6H       0.168000
     62 H34          7.5750    -1.6770     0.3350 ha         1 C6H       0.165000
@<TRIPOS>BOND
     1     1     2 1   
     2     1    30 1   
     3     1    31 1   
     4     1    32 1   
     5     2     3 1   
     6     3     4 ar  
     7     3    29 ar  
     8     4     5 1   
     9     4    22 ar  
    10     5     6 2   
    11     5     7 1   
    12     7     8 1   
    13     7    33 1   
    14     7    34 1   
    15     8     9 1   
    16     8    35 1   
    17     8    36 1   
    18     9    10 1   
    19     9    21 1   
    20     9    37 1   
    21    10    11 1   
    22    10    38 1   
    23    10    39 1   
    24    11    12 1   
    25    11    40 1   
    26    11    41 1   
    27    12    13 1   
    28    12    20 1   
    29    13    14 1   
    30    13    42 1   
    31    13    43 1   
    32    14    15 1   
    33    14    19 1   
    34    14    44 1   
    35    15    16 1   
    36    15    45 1   
    37    15    46 1   
    38    16    17 1   
    39    16    47 1   
    40    16    48 1   
    41    17    18 1   
    42    17    49 1   
    43    17    50 1   
    44    18    19 1   
    45    18    51 1   
    46    18    52 1   
    47    19    53 1   
    48    19    54 1   
    49    20    21 1   
    50    20    55 1   
    51    20    56 1   
    52    21    57 1   
    53    21    58 1   
    54    22    23 ar  
    55    22    59 1   
    56    23    24 1   
    57    23    25 ar  
    58    25    26 1   
    59    25    29 ar  
    60    26    27 1   
    61    26    60 1   
    62    27    28 2   
    63    27    61 1   
    64    28    29 1   
    65    28    62 1   
@<TRIPOS>SUBSTRUCTURE
     1 C6H         1 TEMP              0 ****  ****    0 ROOT
