@<TRIPOS>MOLECULE
C6I
   34    36     1     0     0
SMALL
No Charge or Current Charge


@<TRIPOS>ATOM
      1 C1           9.6740    -4.1420    18.8360 c6         1 C6I      -0.071900
      2 C2          10.9820    -4.1360    19.6660 c6         1 C6I      -0.091400
      3 C3          10.9230    -5.1850    20.8050 c6         1 C6I       0.137700
      4 C4           9.6740    -5.0110    21.7080 c6         1 C6I      -0.091400
      5 C5           8.3750    -5.0120    20.8640 c6         1 C6I      -0.071900
      6 C6          13.0180    -6.5090    21.5790 c5         1 C6I       0.139300
      7 C7          14.1360    -6.0400    22.4960 ca         1 C6I       0.017700
      8 C8          15.2770    -6.7140    22.9390 ca         1 C6I      -0.261000
      9 C9          16.1380    -6.0090    23.7890 ca         1 C6I       0.679900
     10 C10         14.8600    -4.1340    23.7790 ca         1 C6I       0.699200
     11 C11         13.9480    -4.7490    22.9300 ca         1 C6I      -0.329600
     12 C12         12.7140    -4.2270    22.3630 c          1 C6I       0.609600
     13 F           14.6920    -2.8690    24.2170 f          1 C6I      -0.203200
     14 N2          15.9700    -4.7670    24.2200 nb         1 C6I      -0.810000
     15 N1          17.2530    -6.5190    24.2960 nv         1 C6I      -1.071900
     16 O           12.2400    -3.1160    22.5360 o          1 C6I      -0.536000
     17 N           12.1810    -5.2650    21.5770 n          1 C6I      -0.425800
     18 C            8.4330    -3.9430    19.7430 c6         1 C6I      -0.077400
     19 H1           9.7110    -3.3510    18.0750 hc         1 C6I       0.038200
     20 H2           9.5850    -5.0930    18.2930 hc         1 C6I       0.038200
     21 H3          11.8390    -4.3450    19.0100 hc         1 C6I       0.056200
     22 H4          11.1430    -3.1320    20.0820 hc         1 C6I       0.056200
     23 H5          10.8040    -6.1600    20.3110 h1         1 C6I       0.039700
     24 H6           9.6360    -5.8200    22.4500 hc         1 C6I       0.056200
     25 H7           9.7410    -4.0710    22.2710 hc         1 C6I       0.056200
     26 H8           7.5090    -4.8250    21.5130 hc         1 C6I       0.038200
     27 H9           8.2230    -6.0050    20.4190 hc         1 C6I       0.038200
     28 H10         12.4780    -7.3680    21.9990 h1         1 C6I       0.063200
     29 H11         13.3890    -6.7580    20.5770 h1         1 C6I       0.063200
     30 H12         15.4910    -7.7340    22.6370 ha         1 C6I       0.130000
     31 H13         17.6200    -5.9840    25.0720 hn         1 C6I       0.499000
     32 H14         17.2930    -7.5270    24.3930 hn         1 C6I       0.499000
     33 H15          8.4580    -2.9390    20.1900 hc         1 C6I       0.043200
     34 H16          7.5180    -3.9900    19.1370 hc         1 C6I       0.043200
@<TRIPOS>BOND
     1     1     2 1   
     2     1    18 1   
     3     1    19 1   
     4     1    20 1   
     5     2     3 1   
     6     2    21 1   
     7     2    22 1   
     8     3     4 1   
     9     3    17 1   
    10     3    23 1   
    11     4     5 1   
    12     4    24 1   
    13     4    25 1   
    14     5    18 1   
    15     5    26 1   
    16     5    27 1   
    17     6     7 1   
    18     6    17 1   
    19     6    28 1   
    20     6    29 1   
    21     7     8 ar  
    22     7    11 ar  
    23     8     9 ar  
    24     8    30 1   
    25     9    14 ar  
    26     9    15 1   
    27    10    11 ar  
    28    10    13 1   
    29    10    14 ar  
    30    11    12 1   
    31    12    16 2   
    32    12    17 1   
    33    15    31 1   
    34    15    32 1   
    35    18    33 1   
    36    18    34 1   
@<TRIPOS>SUBSTRUCTURE
     1 C6I         1 TEMP              0 ****  ****    0 ROOT
