@<TRIPOS>MOLECULE
C6I
   34    36     1     0     0
SMALL
abcg2


@<TRIPOS>ATOM
      1 C1           9.6800    -4.1800    18.8590 c6         1 C6I      -0.071900
      2 C2          10.9580    -4.0710    19.6880 c6         1 C6I      -0.091400
      3 C3          10.9590    -5.1170    20.8010 c6         1 C6I       0.137700
      4 C4           9.7220    -4.9920    21.6910 c6         1 C6I      -0.091400
      5 C5           8.4500    -5.0920    20.8540 c6         1 C6I      -0.071900
      6 C6          12.9800    -6.3570    21.6430 c5         1 C6I       0.139300
      7 C7          14.1100    -5.9780    22.5420 ca         1 C6I       0.017700
      8 C8          15.1780    -6.7110    22.9850 ca         1 C6I      -0.261000
      9 C9          16.0810    -6.0510    23.8470 ca         1 C6I       0.679900
     10 C10         14.8810    -4.1190    23.7630 ca         1 C6I       0.699200
     11 C11         13.9290    -4.6500    22.9200 ca         1 C6I      -0.329600
     12 C12         12.7030    -4.1200    22.3040 c          1 C6I       0.609600
     13 F           14.7780    -2.8560    24.1710 f          1 C6I      -0.203200
     14 N2          15.9120    -4.7700    24.2140 nb         1 C6I      -0.810000
     15 N1          17.1710    -6.6750    24.3220 nv         1 C6I      -1.071900
     16 O           12.2260    -3.0020    22.4250 o          1 C6I      -0.536000
     17 N           12.1980    -5.1410    21.5630 n          1 C6I      -0.425800
     18 C            8.4380    -4.0550    19.7360 c6         1 C6I      -0.077400
     19 H1           9.6770    -3.4100    18.0840 hc         1 C6I       0.038200
     20 H2           9.6630    -5.1430    18.3390 hc         1 C6I       0.038200
     21 H3          11.8360    -4.2100    19.0530 hc         1 C6I       0.056200
     22 H4          11.0260    -3.0700    20.1190 hc         1 C6I       0.056200
     23 H5          10.9100    -6.0980    20.3160 h1         1 C6I       0.039700
     24 H6           9.7390    -5.7760    22.4520 hc         1 C6I       0.056200
     25 H7           9.7410    -4.0340    22.2170 hc         1 C6I       0.056200
     26 H8           7.5740    -4.9710    21.4960 hc         1 C6I       0.038200
     27 H9           8.3800    -6.0950    20.4190 hc         1 C6I       0.038200
     28 H10         12.3970    -7.1840    22.0600 h1         1 C6I       0.063200
     29 H11         13.3360    -6.6710    20.6570 h1         1 C6I       0.063200
     30 H12         15.3360    -7.7440    22.7040 ha         1 C6I       0.130000
     31 H13         17.7300    -6.2310    25.0300 hn         1 C6I       0.499000
     32 H14         17.2890    -7.6650    24.1930 hn         1 C6I       0.499000
     33 H15          8.4040    -3.0520    20.1740 hc         1 C6I       0.043200
     34 H16          7.5350    -4.1620    19.1300 hc         1 C6I       0.043200
@<TRIPOS>BOND
     1     1     2 1   
     2     1    18 1   
     3     1    19 1   
     4     1    20 1   
     5     2     3 1   
     6     2    21 1   
     7     2    22 1   
     8     3     4 1   
     9     3    17 1   
    10     3    23 1   
    11     4     5 1   
    12     4    24 1   
    13     4    25 1   
    14     5    18 1   
    15     5    26 1   
    16     5    27 1   
    17     6     7 1   
    18     6    17 1   
    19     6    28 1   
    20     6    29 1   
    21     7     8 ar  
    22     7    11 ar  
    23     8     9 ar  
    24     8    30 1   
    25     9    14 ar  
    26     9    15 1   
    27    10    11 ar  
    28    10    13 1   
    29    10    14 ar  
    30    11    12 1   
    31    12    16 2   
    32    12    17 1   
    33    15    31 1   
    34    15    32 1   
    35    18    33 1   
    36    18    34 1   
@<TRIPOS>SUBSTRUCTURE
     1 C6I         1 TEMP              0 ****  ****    0 ROOT
