@<TRIPOS>MOLECULE
C6K
   56    59     1     0     0
SMALL
bcc


@<TRIPOS>ATOM
      1 C10          3.2080     0.6880     1.8630 c6         1 C6K      -0.070900
      2 N12          4.1600     0.6300    -0.3970 n3         1 C6K      -0.723600
      3 C13          4.9840    -0.0790    -1.3500 c3         1 C6K       0.215100
      4 C15          7.1500    -1.3490    -1.1450 ca         1 C6K      -0.117500
      5 C17          9.1320    -0.3430    -0.2230 ca         1 C6K      -0.129000
      6 C20          2.8810     1.0080    -0.9720 c6         1 C6K       0.168300
      7 C21          2.0730     1.8540    -0.0020 c6         1 C6K      -0.070900
      8 C22         -3.3630     0.9870     0.3830 ca         1 C6K      -0.063000
      9 C28         -6.2660    -1.7690    -0.7920 cc         1 C6K      -0.162200
     10 C01         -3.9400    -3.4170     1.2460 c3         1 C6K       0.137700
     11 C03         -3.8620    -1.3720     0.1070 ca         1 C6K       0.228100
     12 C04         -2.9610    -0.3680     0.4740 ca         1 C6K      -0.222600
     13 C05         -1.5810    -0.6850     0.9360 c          1 C6K       0.591700
     14 O06         -1.2770    -1.7920     1.3270 o          1 C6K      -0.518100
     15 C07         -0.5530     0.4260     0.8910 c3         1 C6K      -0.176400
     16 C08          0.8540    -0.0200     1.2600 c3         1 C6K      -0.066400
     17 C09          1.8470     1.1430     1.3350 c6         1 C6K      -0.060700
     18 C11          3.9890    -0.1180     0.8360 c6         1 C6K       0.168300
     19 C14          6.4260    -0.1830    -0.9210 ca         1 C6K      -0.085300
     20 C16          8.4950    -1.4300    -0.8040 ca         1 C6K      -0.132500
     21 C18          8.4140     0.8240     0.0140 ca         1 C6K      -0.132500
     22 C19          7.0730     0.9030    -0.3330 ca         1 C6K      -0.117500
     23 C23         -4.6210     1.3450    -0.0260 ca         1 C6K      -0.012600
     24 CL          -5.1110     3.0010    -0.1130 cl         1 C6K      -0.109400
     25 C25         -5.5180     0.3420    -0.3880 ca         1 C6K      -0.018200
     26 N26         -6.7900     0.4030    -0.8450 na         1 C6K      -0.156400
     27 C27         -7.2420    -0.8670    -1.0900 cd         1 C6K      -0.119100
     28 C29         -5.1430    -1.0140    -0.3310 ca         1 C6K      -0.141800
     29 H1           3.7990     1.5670     2.1360 hc         1 C6K       0.045700
     30 H2           3.0880     0.0930     2.7730 hc         1 C6K       0.045700
     31 H4           4.5960    -1.0890    -1.5680 h1         1 C6K       0.037200
     32 H5           4.9470     0.4680    -2.2970 h1         1 C6K       0.037200
     33 H6           6.6580    -2.2060    -1.5900 ha         1 C6K       0.135500
     34 H7          10.1780    -0.4040     0.0480 ha         1 C6K       0.128000
     35 H8           3.0670     1.5810    -1.8840 h1         1 C6K       0.032950
     36 H9           2.2960     0.1220    -1.2810 h1         1 C6K       0.032950
     37 H10          2.6160     2.7860     0.1840 hc         1 C6K       0.045700
     38 H11          1.1290     2.1370    -0.4710 hc         1 C6K       0.045700
     39 H12         -2.6710     1.7700     0.6550 ha         1 C6K       0.146000
     40 H13         -6.3400    -2.8400    -0.8860 ha         1 C6K       0.165000
     41 H14         -5.0250    -3.3890     1.3750 h1         1 C6K       0.040700
     42 H15         -3.6330    -4.4480     1.0870 h1         1 C6K       0.040700
     43 H16         -3.4640    -3.0400     2.1520 h1         1 C6K       0.040700
     44 H17         -0.5760     0.8730    -0.1070 hc         1 C6K       0.060200
     45 H18         -0.8690     1.2260     1.5710 hc         1 C6K       0.060200
     46 H19          0.8320    -0.5110     2.2370 hc         1 C6K       0.053200
     47 H20          1.1940    -0.7800     0.5520 hc         1 C6K       0.053200
     48 H21          1.4340     1.8730     2.0410 hc         1 C6K       0.043700
     49 H22          4.9730    -0.3600     1.2430 h1         1 C6K       0.032950
     50 H23          3.4890    -1.0850     0.6470 h1         1 C6K       0.032950
     51 H24          9.0430    -2.3460    -0.9880 ha         1 C6K       0.128000
     52 H25          8.9010     1.6760     0.4720 ha         1 C6K       0.128000
     53 H26          6.5130     1.8090    -0.1370 ha         1 C6K       0.135500
     54 H27         -7.3210     1.2450    -1.0000 hn         1 C6K       0.310700
     55 H28         -8.2390    -1.0260    -1.4670 h4         1 C6K       0.168000
     56 O02         -3.5330    -2.6820     0.0970 os         1 C6K      -0.328900
@<TRIPOS>BOND
     1     1    17 1   
     2     1    18 1   
     3     1    29 1   
     4     1    30 1   
     5     2     3 1   
     6     2     6 1   
     7     2    18 1   
     8     3    19 1   
     9     3    31 1   
    10     3    32 1   
    11     4    19 ar  
    12     4    20 ar  
    13     4    33 1   
    14     5    20 ar  
    15     5    21 ar  
    16     5    34 1   
    17     6     7 1   
    18     6    35 1   
    19     6    36 1   
    20     7    17 1   
    21     7    37 1   
    22     7    38 1   
    23     8    12 ar  
    24     8    23 ar  
    25     8    39 1   
    26     9    27 2   
    27     9    28 1   
    28     9    40 1   
    29    10    41 1   
    30    10    42 1   
    31    10    43 1   
    32    10    56 1   
    33    11    12 ar  
    34    11    28 ar  
    35    11    56 1   
    36    12    13 1   
    37    13    14 2   
    38    13    15 1   
    39    15    16 1   
    40    15    44 1   
    41    15    45 1   
    42    16    17 1   
    43    16    46 1   
    44    16    47 1   
    45    17    48 1   
    46    18    49 1   
    47    18    50 1   
    48    19    22 ar  
    49    20    51 1   
    50    21    22 ar  
    51    21    52 1   
    52    22    53 1   
    53    23    24 1   
    54    23    25 ar  
    55    25    26 1   
    56    25    28 ar  
    57    26    27 1   
    58    26    54 1   
    59    27    55 1   
@<TRIPOS>SUBSTRUCTURE
     1 C6K         1 TEMP              0 ****  ****    0 ROOT
