@<TRIPOS>MOLECULE
C6K
   56    59     1     0     0
SMALL
No Charge or Current Charge


@<TRIPOS>ATOM
      1 C10          3.1930     0.4630     2.2600 c6         1 C6K      -0.070900
      2 N12          3.5020     1.0100    -0.1810 n3         1 C6K      -0.723600
      3 C13          3.8020     0.5180    -1.5470 c3         1 C6K       0.215100
      4 C15          5.1890    -1.5920    -1.9110 ca         1 C6K      -0.099500
      5 C17          7.6230    -1.5340    -1.8560 ca         1 C6K      -0.111000
      6 C20          2.2840     1.8670    -0.1520 c6         1 C6K       0.168300
      7 C21          2.0410     2.4630     1.2580 c6         1 C6K      -0.070900
      8 C22         -3.1570     1.2500     0.4390 ca         1 C6K      -0.045000
      9 C28         -3.7620    -2.4740    -1.3950 cc         1 C6K      -0.212200
     10 C01         -3.1720    -3.2580     1.8250 c3         1 C6K       0.160900
     11 C03         -2.8170    -1.1680     0.6370 ca         1 C6K       0.228100
     12 C04         -2.6380     0.1360     1.1510 ca         1 C6K      -0.222600
     13 C05         -1.9100     0.3400     2.4450 c          1 C6K       0.591700
     14 O06         -2.2690    -0.2250     3.4710 o          1 C6K      -0.518100
     15 C07         -0.7060     1.2910     2.4520 c3         1 C6K      -0.176400
     16 C08          0.6130     0.5050     2.2440 c3         1 C6K      -0.066400
     17 C09          1.9240     1.3540     2.3420 c6         1 C6K      -0.060700
     18 C11          3.4270    -0.0870     0.8290 c6         1 C6K       0.168300
     19 C14          5.1430    -0.2060    -1.6560 ca         1 C6K      -0.085300
     20 C16          6.4260    -2.2530    -2.0100 ca         1 C6K      -0.114500
     21 C18          7.5840    -0.1530    -1.6010 ca         1 C6K      -0.114500
     22 C19          6.3470     0.5090    -1.5020 ca         1 C6K      -0.099500
     23 C23         -3.8430     1.0670    -0.7790 ca         1 C6K       0.079000
     24 Cl          -4.4810     2.4510    -1.6610 cl         1 C6K      -0.201000
     25 C25         -3.9920    -0.2380    -1.2720 ca         1 C6K      -0.018200
     26 N26         -4.5980    -0.6360    -2.4550 na         1 C6K      -0.206700
     27 C27         -4.4410    -2.0420    -2.5270 cd         1 C6K      -0.169100
     28 C29         -3.4920    -1.3140    -0.5910 ca         1 C6K      -0.141800
     29 H1           4.0710     1.0490     2.5640 hc         1 C6K       0.045700
     30 H2           3.1220    -0.3700     2.9720 hc         1 C6K       0.045700
     31 H4           3.0010    -0.1530    -1.8870 h1         1 C6K       0.037200
     32 H5           3.8220     1.3640    -2.2470 h1         1 C6K       0.037200
     33 H6           4.2670    -2.1560    -2.0300 ha         1 C6K       0.117500
     34 H7           8.5800    -2.0460    -1.9330 ha         1 C6K       0.110000
     35 H8           2.3910     2.6970    -0.8660 h1         1 C6K       0.032950
     36 H9           1.4010     1.2910    -0.4630 h1         1 C6K       0.032950
     37 H10          2.8790     3.1270     1.5100 hc         1 C6K       0.045700
     38 H11          1.1500     3.1040     1.2470 hc         1 C6K       0.045700
     39 H12         -3.0390     2.2580     0.8310 ha         1 C6K       0.128000
     40 H13         -3.4740    -3.5040    -1.1920 ha         1 C6K       0.215000
     41 H14         -3.7650    -3.7290     1.0330 h1         1 C6K       0.040700
     42 H15         -2.5940    -4.0430     2.3290 h1         1 C6K       0.040700
     43 H16         -3.8620    -2.8190     2.5560 h1         1 C6K       0.040700
     44 H17         -0.8010     1.9970     1.6210 hc         1 C6K       0.060200
     45 H18         -0.6630     1.8210     3.4110 hc         1 C6K       0.060200
     46 H19          0.6520    -0.2890     3.0020 hc         1 C6K       0.053200
     47 H20          0.5580    -0.0110     1.2780 hc         1 C6K       0.053200
     48 H21          1.9040     1.8340     3.3310 hc         1 C6K       0.043700
     49 H22          4.3620    -0.6660     0.8360 h1         1 C6K       0.032950
     50 H23          2.6210    -0.7890     0.5700 h1         1 C6K       0.032950
     51 H24          6.4560    -3.3230    -2.2070 ha         1 C6K       0.110000
     52 H25          8.5100     0.4050    -1.4800 ha         1 C6K       0.110000
     53 H26          6.3210     1.5770    -1.3000 ha         1 C6K       0.117500
     54 H27         -5.0490    -0.0330    -3.1370 hn         1 C6K       0.361000
     55 H28         -4.8110    -2.6200    -3.3720 h4         1 C6K       0.218000
     56 O02         -2.2910    -2.2520     1.2980 os         1 C6K      -0.352100
@<TRIPOS>BOND
     1     1    17 1   
     2     1    18 1   
     3     1    29 1   
     4     1    30 1   
     5     2     3 1   
     6     2     6 1   
     7     2    18 1   
     8     3    19 1   
     9     3    31 1   
    10     3    32 1   
    11     4    19 ar  
    12     4    20 ar  
    13     4    33 1   
    14     5    20 ar  
    15     5    21 ar  
    16     5    34 1   
    17     6     7 1   
    18     6    35 1   
    19     6    36 1   
    20     7    17 1   
    21     7    37 1   
    22     7    38 1   
    23     8    12 ar  
    24     8    23 ar  
    25     8    39 1   
    26     9    27 2   
    27     9    28 1   
    28     9    40 1   
    29    10    41 1   
    30    10    42 1   
    31    10    43 1   
    32    10    56 1   
    33    11    12 ar  
    34    11    28 ar  
    35    11    56 1   
    36    12    13 1   
    37    13    14 2   
    38    13    15 1   
    39    15    16 1   
    40    15    44 1   
    41    15    45 1   
    42    16    17 1   
    43    16    46 1   
    44    16    47 1   
    45    17    48 1   
    46    18    49 1   
    47    18    50 1   
    48    19    22 ar  
    49    20    51 1   
    50    21    22 ar  
    51    21    52 1   
    52    22    53 1   
    53    23    24 1   
    54    23    25 ar  
    55    25    26 1   
    56    25    28 ar  
    57    26    27 1   
    58    26    54 1   
    59    27    55 1   
@<TRIPOS>SUBSTRUCTURE
     1 C6K         1 TEMP              0 ****  ****    0 ROOT
