@<TRIPOS>MOLECULE
C6L
   33    32     1     0     0
SMALL
abcg2


@<TRIPOS>ATOM
      1 O4           0.3400    -0.2950     1.7170 o          1 C6L      -0.631100
      2 C5           0.3340     0.1330     0.5690 c          1 C6L       0.603100
      3 C6           1.5970     0.6250    -0.1110 c3         1 C6L      -0.156400
      4 C7           2.8600    -0.0770     0.3700 c3         1 C6L      -0.065400
      5 C8           4.1140     0.4860    -0.2860 c3         1 C6L      -0.077400
      6 C9           5.3940    -0.1750     0.2080 c3         1 C6L      -0.076400
      7 C10          6.6460     0.4050    -0.4350 c3         1 C6L      -0.087100
      8 N1          -0.7860     0.2690    -0.1560 ns         1 C6L      -0.459900
      9 C3          -2.0730    -0.2310     0.2640 c3         1 C6L      -0.045300
     10 C4          -2.2630    -1.7400    -0.0540 c          1 C6L       0.717000
     11 O2          -1.3410    -2.3260    -0.6430 o          1 C6L      -0.722000
     12 O1          -3.3480    -2.2250     0.3260 o          1 C6L      -0.722000
     13 C2          -3.1880     0.6110    -0.3520 c3         1 C6L      -0.076400
     14 C1          -3.1350     2.0640     0.0790 c3         1 C6L       0.153600
     15 O3          -4.2390     2.7420    -0.4850 oh         1 C6L      -0.671000
     16 H6           1.5050     0.5310    -1.1960 hc         1 C6L       0.039200
     17 H6A          1.6810     1.6990     0.0900 hc         1 C6L       0.039200
     18 H7           2.9430     0.0220     1.4540 hc         1 C6L       0.056200
     19 H7A          2.7890    -1.1490     0.1620 hc         1 C6L       0.056200
     20 H8           4.0430     0.3750    -1.3740 hc         1 C6L       0.028700
     21 H8A          4.1680     1.5650    -0.0970 hc         1 C6L       0.028700
     22 H9           5.4580    -0.0670     1.2950 hc         1 C6L       0.038700
     23 H9A          5.3460    -1.2500     0.0140 hc         1 C6L       0.038700
     24 H10          6.6300     0.2760    -1.5190 hc         1 C6L       0.024700
     25 H10A         6.7340     1.4740    -0.2350 hc         1 C6L       0.024700
     26 H10B         7.5500    -0.0760    -0.0590 hc         1 C6L       0.024700
     27 HN1         -0.6810     0.4920    -1.1330 hn         1 C6L       0.291500
     28 H3          -2.1280    -0.1210     1.3510 h1         1 C6L       0.064700
     29 H2          -3.1440     0.5470    -1.4460 hc         1 C6L       0.059700
     30 H2A         -4.1430     0.1800    -0.0480 hc         1 C6L       0.059700
     31 H1          -3.1540     2.1130     1.1770 h1         1 C6L       0.010200
     32 H1A         -2.1880     2.5170    -0.2400 h1         1 C6L       0.010200
     33 HO3         -4.1720     3.6710    -0.2480 ho         1 C6L       0.419000
@<TRIPOS>BOND
     1     1     2 2   
     2     2     3 1   
     3     2     8 1   
     4     3     4 1   
     5     3    16 1   
     6     3    17 1   
     7     4     5 1   
     8     4    18 1   
     9     4    19 1   
    10     5     6 1   
    11     5    20 1   
    12     5    21 1   
    13     6     7 1   
    14     6    22 1   
    15     6    23 1   
    16     7    24 1   
    17     7    25 1   
    18     7    26 1   
    19     8     9 1   
    20     8    27 1   
    21     9    10 1   
    22     9    13 1   
    23     9    28 1   
    24    10    11 1   
    25    10    12 1   
    26    13    14 1   
    27    13    29 1   
    28    13    30 1   
    29    14    15 1   
    30    14    31 1   
    31    14    32 1   
    32    15    33 1   
@<TRIPOS>SUBSTRUCTURE
     1 C6L         1 TEMP              0 ****  ****    0 ROOT
