@<TRIPOS>MOLECULE
C6L
   33    32     1     0     0
SMALL
No Charge or Current Charge


@<TRIPOS>ATOM
      1 O4          -0.0550     1.1050     1.6080 o          1 C6L      -0.631100
      2 C5           0.2260     0.7290     0.4770 c          1 C6L       0.603100
      3 C6           1.5550     1.0830    -0.2030 c3         1 C6L      -0.156400
      4 C7           2.7290     0.2640     0.3850 c3         1 C6L      -0.065400
      5 C8           4.0840     0.5910    -0.2810 c3         1 C6L      -0.077400
      6 C9           5.2570    -0.2250     0.3050 c3         1 C6L      -0.076400
      7 C10          6.6090     0.1010    -0.3590 c3         1 C6L      -0.087100
      8 N1          -0.6390    -0.0180    -0.2940 ns         1 C6L      -0.459900
      9 C3          -1.9920    -0.4710     0.1140 c3         1 C6L      -0.045300
     10 C4          -2.2620    -1.9140    -0.4110 c          1 C6L       0.717000
     11 O2          -2.0750    -2.1480    -1.5980 o          1 C6L      -0.722000
     12 O1          -2.5700    -2.7750     0.4020 o          1 C6L      -0.722000
     13 C2          -3.1030     0.5100    -0.3450 c3         1 C6L      -0.076400
     14 C1          -3.0110     1.9150     0.2860 c3         1 C6L       0.153600
     15 O3          -4.1240     2.7090    -0.1380 oh         1 C6L      -0.671000
     16 H6           1.4930     0.8760    -1.2780 hc         1 C6L       0.039200
     17 H6A          1.7610     2.1480    -0.0420 hc         1 C6L       0.039200
     18 H7           2.8000     0.4570     1.4630 hc         1 C6L       0.056200
     19 H7A          2.5160    -0.8060     0.2660 hc         1 C6L       0.056200
     20 H8           4.0130     0.3960    -1.3580 hc         1 C6L       0.028700
     21 H8A          4.2950     1.6610    -0.1620 hc         1 C6L       0.028700
     22 H9           5.3330    -0.0320     1.3820 hc         1 C6L       0.038700
     23 H9A          5.0510    -1.2960     0.1860 hc         1 C6L       0.038700
     24 H10          6.5760    -0.1160    -1.4330 hc         1 C6L       0.024700
     25 H10A         6.8610     1.1600    -0.2260 hc         1 C6L       0.024700
     26 H10B         7.4090    -0.5010     0.0880 hc         1 C6L       0.024700
     27 HN1         -0.3070    -0.2890    -1.2130 hn         1 C6L       0.291500
     28 H3          -2.0200    -0.5290     1.2100 h1         1 C6L       0.064700
     29 H2          -3.0780     0.6020    -1.4370 hc         1 C6L       0.059700
     30 H2A         -4.0770     0.0760    -0.0870 hc         1 C6L       0.059700
     31 H1          -3.0090     1.8220     1.3800 h1         1 C6L       0.010200
     32 H1A         -2.0720     2.3940    -0.0170 h1         1 C6L       0.010200
     33 HO3         -4.0250     3.5880     0.2890 ho         1 C6L       0.419000
@<TRIPOS>BOND
     1     1     2 2   
     2     2     3 1   
     3     2     8 1   
     4     3     4 1   
     5     3    16 1   
     6     3    17 1   
     7     4     5 1   
     8     4    18 1   
     9     4    19 1   
    10     5     6 1   
    11     5    20 1   
    12     5    21 1   
    13     6     7 1   
    14     6    22 1   
    15     6    23 1   
    16     7    24 1   
    17     7    25 1   
    18     7    26 1   
    19     8     9 1   
    20     8    27 1   
    21     9    10 1   
    22     9    13 1   
    23     9    28 1   
    24    10    11 1   
    25    10    12 1   
    26    13    14 1   
    27    13    29 1   
    28    13    30 1   
    29    14    15 1   
    30    14    31 1   
    31    14    32 1   
    32    15    33 1   
@<TRIPOS>SUBSTRUCTURE
     1 C6L         1 TEMP              0 ****  ****    0 ROOT
