@<TRIPOS>MOLECULE
C6N
  153   158     1     0     0
SMALL
No Charge or Current Charge


@<TRIPOS>ATOM
      1 O01          4.3680     1.5540     3.0890 oh         1 C6N      -0.718000
      2 C02          5.4670     1.1110     2.2630 c3         1 C6N       0.162600
      3 C03          5.1380    -0.1710     1.4310 c6         1 C6N       0.162300
      4 O04          3.9650     0.0930     0.6120 os         1 C6N      -0.469000
      5 C05          6.3320    -0.6060     0.5270 c6         1 C6N       0.156800
      6 O06          7.5100    -0.8850     1.3230 os         1 C6N      -0.499000
      7 C07          8.7750    -0.7420     0.6400 c6         1 C6N       0.365300
      8 C08          9.6460    -2.0440     0.7340 c6         1 C6N       0.117300
      9 O09          8.9540    -3.2220     0.2470 oh         1 C6N      -0.725000
     10 C10         10.0900    -2.2630     2.2080 c6         1 C6N       0.106800
     11 O11         10.9460    -3.4160     2.3050 oh         1 C6N      -0.667500
     12 C12         10.8080    -0.9940     2.7510 c6         1 C6N       0.151300
     13 O13         11.1950    -1.2180     4.1180 oh         1 C6N      -0.719500
     14 C14          9.8650     0.2400     2.5920 c6         1 C6N       0.168300
     15 C15         10.5400     1.5720     3.0600 c3         1 C6N       0.169600
     16 O16          9.7060     2.7350     2.8790 oh         1 C6N      -0.720500
     17 O17          9.4750     0.3900     1.1970 os         1 C6N      -0.455500
     18 C18          5.8950    -1.8400    -0.3320 c6         1 C6N       0.163300
     19 O19          6.9180    -2.3050    -1.2320 oh         1 C6N      -0.727500
     20 C20          4.6210    -1.4870    -1.1400 c6         1 C6N       0.114800
     21 O21          4.2230    -2.6040    -1.9720 oh         1 C6N      -0.725000
     22 C22          3.5060    -1.0490    -0.1370 c6         1 C6N       0.362800
     23 O23          2.3130    -0.7010    -0.8550 os         1 C6N      -0.449000
     24 C24          1.1640    -0.3710    -0.0540 c3         1 C6N       0.166600
     25 C25         -0.0340    -0.0000    -0.9840 c3         1 C6N      -0.045000
     26 C26         -0.4050    -1.2100    -1.9170 c3         1 C6N      -0.062900
     27 C27         -0.8290    -2.5310    -1.2200 c3         1 C6N      -0.076900
     28 C28         -1.1730    -3.6510    -2.2260 c3         1 C6N      -0.069900
     29 C29         -1.5970    -4.9710    -1.5380 c3         1 C6N      -0.074900
     30 C30         -2.0630    -6.1100    -2.4970 c6         1 C6N      -0.059700
     31 C31         -0.9370    -6.5850    -3.4630 c6         1 C6N      -0.070150
     32 C32         -1.4200    -7.7320    -4.3860 c6         1 C6N      -0.073150
     33 C33         -1.9750    -8.9210    -3.5650 c6         1 C6N      -0.074400
     34 C34         -3.1020    -8.4580    -2.6130 c6         1 C6N      -0.073150
     35 C35         -2.6180    -7.3160    -1.6860 c6         1 C6N      -0.070150
     36 C36         -1.2390     0.3670    -0.0590 c3         1 C6N       0.166600
     37 O37         -2.3830     0.7000    -0.8670 os         1 C6N      -0.449000
     38 C38         -3.5790     1.0480    -0.1540 c6         1 C6N       0.362800
     39 C39         -4.6880     1.4900    -1.1620 c6         1 C6N       0.114800
     40 O40         -4.2840     2.6090    -1.9880 oh         1 C6N      -0.725000
     41 C41         -5.9660     1.8420    -0.3590 c6         1 C6N       0.163300
     42 O42         -6.9840     2.3110    -1.2640 oh         1 C6N      -0.727500
     43 C43         -6.4090     0.6060     0.4930 c6         1 C6N       0.156800
     44 O44         -7.5910     0.8840     1.2840 os         1 C6N      -0.499000
     45 C45         -8.8530     0.7450     0.5940 c6         1 C6N       0.365300
     46 C46         -9.7220     2.0480     0.6870 c6         1 C6N       0.117300
     47 O47         -9.0260     3.2270     0.2080 oh         1 C6N      -0.725000
     48 C48        -10.1740     2.2630     2.1590 c6         1 C6N       0.106800
     49 O49        -11.0290     3.4160     2.2560 oh         1 C6N      -0.667500
     50 C50        -10.8960     0.9930     2.6950 c6         1 C6N       0.151300
     51 O51        -11.2900     1.2130     4.0610 oh         1 C6N      -0.719500
     52 C52         -9.9540    -0.2420     2.5360 c6         1 C6N       0.168300
     53 C53        -10.6340    -1.5740     2.9970 c3         1 C6N       0.169600
     54 O54         -9.8000    -2.7380     2.8150 oh         1 C6N      -0.720500
     55 O55         -9.5570    -0.3880     1.1430 os         1 C6N      -0.455500
     56 C56         -5.2210     0.1670     1.4020 c6         1 C6N       0.162300
     57 C57         -5.5560    -1.1180     2.2290 c3         1 C6N       0.162600
     58 O58         -4.4620    -1.5650     3.0590 oh         1 C6N      -0.718000
     59 O59         -4.0440    -0.0960     0.5890 os         1 C6N      -0.469000
     60 C60          0.3420     1.2130    -1.9100 c3         1 C6N      -0.062900
     61 C61          0.7610     2.5320    -1.2060 c3         1 C6N      -0.076900
     62 C62          1.1160     3.6540    -2.2050 c3         1 C6N      -0.069900
     63 C63          1.5440     4.9680    -1.5100 c3         1 C6N      -0.074900
     64 C64          1.8160     6.1750    -2.4610 c6         1 C6N      -0.059700
     65 C65          3.0000     5.9160    -3.4410 c6         1 C6N      -0.070150
     66 C66          3.2640     7.1390    -4.3550 c6         1 C6N      -0.073150
     67 C67          3.5110     8.4210    -3.5260 c6         1 C6N      -0.074400
     68 C68          2.3330     8.6910    -2.5600 c6         1 C6N      -0.073150
     69 C69          2.0730     7.4720    -1.6410 c6         1 C6N      -0.070150
     70 H1           4.6500     2.3960     3.5180 ho         1 C6N       0.509000
     71 H2           5.7580     1.9060     1.5620 h1         1 C6N       0.046950
     72 H3           6.3440     0.8970     2.8900 h1         1 C6N       0.046950
     73 H4           4.9030    -0.9830     2.1350 h1         1 C6N       0.061200
     74 H5           6.5540     0.2360    -0.1460 h1         1 C6N       0.066700
     75 H6           8.5990    -0.5390    -0.4280 h2         1 C6N       0.084700
     76 H7          10.5470    -1.8670     0.1270 h1         1 C6N       0.089200
     77 H8           8.1740    -2.8880    -0.2910 ho         1 C6N       0.536000
     78 H9           9.1830    -2.4260     2.8110 h1         1 C6N       0.057200
     79 H10         10.5560    -4.0680     1.6760 ho         1 C6N       0.464000
     80 H11         11.7060    -0.8170     2.1390 h1         1 C6N       0.049700
     81 H12         11.4740    -2.1670     4.1410 ho         1 C6N       0.525500
     82 H13          8.9620     0.0880     3.2020 h1         1 C6N       0.075700
     83 H14         10.8060     1.4670     4.1210 h1         1 C6N       0.037200
     84 H15         11.4790     1.6910     2.5020 h1         1 C6N       0.037200
     85 H16         10.2460     3.5190     3.1340 ho         1 C6N       0.505000
     86 H17          5.6340    -2.6520     0.3640 h1         1 C6N       0.055700
     87 H18          6.3990    -2.7080    -1.9760 ho         1 C6N       0.529000
     88 H19          4.8460    -0.6170    -1.7760 h1         1 C6N       0.068200
     89 H20          3.3060    -2.4010    -2.2800 ho         1 C6N       0.528500
     90 H21          3.2840    -1.8780     0.5520 h2         1 C6N       0.035200
     91 H22          0.8920    -1.2170     0.5900 h1         1 C6N       0.040950
     92 H23          1.3870     0.4730     0.6120 h1         1 C6N       0.040950
     93 H24         -1.2180    -0.9060    -2.5880 hc         1 C6N       0.048450
     94 H25          0.4470    -1.4290    -2.5720 hc         1 C6N       0.048450
     95 H26         -0.0220    -2.8850    -0.5680 hc         1 C6N       0.042700
     96 H27         -1.7050    -2.3520    -0.5860 hc         1 C6N       0.042700
     97 H28         -1.9850    -3.3110    -2.8810 hc         1 C6N       0.036950
     98 H29         -0.2990    -3.8310    -2.8620 hc         1 C6N       0.036950
     99 H30         -0.7620    -5.3280    -0.9210 hc         1 C6N       0.039200
    100 H31         -2.4110    -4.7400    -0.8390 hc         1 C6N       0.039200
    101 H32         -2.8850    -5.6940    -3.0970 hc         1 C6N       0.045200
    102 H33         -0.5930    -5.7520    -4.0890 hc         1 C6N       0.035825
    103 H34         -0.0660    -6.9210    -2.8830 hc         1 C6N       0.035825
    104 H35         -2.1990    -7.3560    -5.0640 hc         1 C6N       0.037450
    105 H36         -0.5910    -8.0720    -5.0210 hc         1 C6N       0.037450
    106 H37         -2.3540    -9.6980    -4.2430 hc         1 C6N       0.036450
    107 H38         -1.1630    -9.3800    -2.9840 hc         1 C6N       0.036450
    108 H39         -3.9670    -8.1170    -3.1990 hc         1 C6N       0.037450
    109 H40         -3.4510    -9.3060    -2.0080 hc         1 C6N       0.037450
    110 H41         -1.8410    -7.6990    -1.0090 hc         1 C6N       0.035825
    111 H42         -3.4500    -6.9890    -1.0480 hc         1 C6N       0.035825
    112 H43         -1.4660    -0.4790     0.6010 h1         1 C6N       0.040950
    113 H44         -0.9700     1.2100     0.5890 h1         1 C6N       0.040950
    114 H45         -3.3600     1.8740     0.5390 h2         1 C6N       0.035200
    115 H46         -4.9110     0.6220    -1.8010 h1         1 C6N       0.068200
    116 H47         -3.3660     2.4060    -2.2920 ho         1 C6N       0.528500
    117 H48         -5.7080     2.6520     0.3410 h1         1 C6N       0.055700
    118 H49         -6.4610     2.7170    -2.0040 ho         1 C6N       0.529000
    119 H50         -6.6290    -0.2340    -0.1840 h1         1 C6N       0.066700
    120 H51         -8.6710     0.5450    -0.4740 h2         1 C6N       0.084700
    121 H52        -10.6200     1.8740     0.0750 h1         1 C6N       0.089200
    122 H53         -8.2440     2.8940    -0.3270 ho         1 C6N       0.536000
    123 H54         -9.2700     2.4230     2.7670 h1         1 C6N       0.057200
    124 H55        -10.6350     4.0700     1.6310 ho         1 C6N       0.464000
    125 H56        -11.7910     0.8190     2.0770 h1         1 C6N       0.049700
    126 H57        -11.5680     2.1620     4.0850 ho         1 C6N       0.525500
    127 H58         -9.0550    -0.0930     3.1520 h1         1 C6N       0.075700
    128 H59        -10.9050    -1.4720     4.0560 h1         1 C6N       0.037200
    129 H60        -11.5700    -1.6900     2.4330 h1         1 C6N       0.037200
    130 H61        -10.3430    -3.5220     3.0650 ho         1 C6N       0.505000
    131 H62         -4.9890     0.9770     2.1100 h1         1 C6N       0.061200
    132 H63         -6.4360    -0.9050     2.8510 h1         1 C6N       0.046950
    133 H64         -5.8440    -1.9100     1.5230 h1         1 C6N       0.046950
    134 H65         -4.7470    -2.4070     3.4830 ho         1 C6N       0.509000
    135 H66          1.1590     0.9110    -2.5770 hc         1 C6N       0.048450
    136 H67         -0.5060     1.4350    -2.5700 hc         1 C6N       0.048450
    137 H68         -0.0510     2.8840    -0.5590 hc         1 C6N       0.042700
    138 H69          1.6330     2.3510    -0.5650 hc         1 C6N       0.042700
    139 H70          1.9250     3.3010    -2.8550 hc         1 C6N       0.036950
    140 H71          0.2490     3.8520    -2.8480 hc         1 C6N       0.036950
    141 H72          0.7540     5.2460    -0.8010 hc         1 C6N       0.039200
    142 H73          2.4370     4.7690    -0.9040 hc         1 C6N       0.039200
    143 H74          0.9000     6.3180    -3.0510 hc         1 C6N       0.045200
    144 H75          3.9100     5.6790    -2.8720 hc         1 C6N       0.035825
    145 H76          2.7910     5.0440    -4.0730 hc         1 C6N       0.035825
    146 H77          4.1310     6.9400    -5.0000 hc         1 C6N       0.037450
    147 H78          2.4060     7.2910    -5.0250 hc         1 C6N       0.037450
    148 H79          4.4440     8.3190    -2.9540 hc         1 C6N       0.036450
    149 H80          3.6480     9.2800    -4.1970 hc         1 C6N       0.036450
    150 H81          2.5480     9.5790    -1.9490 hc         1 C6N       0.037450
    151 H82          1.4260     8.9200    -3.1360 hc         1 C6N       0.037450
    152 H83          1.2110     7.6830    -0.9930 hc         1 C6N       0.035825
    153 H84          2.9350     7.3260    -0.9740 hc         1 C6N       0.035825
@<TRIPOS>BOND
     1     1     2 1   
     2     1    70 1   
     3     2     3 1   
     4     2    71 1   
     5     2    72 1   
     6     3     4 1   
     7     3     5 1   
     8     3    73 1   
     9     4    22 1   
    10     5     6 1   
    11     5    18 1   
    12     5    74 1   
    13     6     7 1   
    14     7     8 1   
    15     7    17 1   
    16     7    75 1   
    17     8     9 1   
    18     8    10 1   
    19     8    76 1   
    20     9    77 1   
    21    10    11 1   
    22    10    12 1   
    23    10    78 1   
    24    11    79 1   
    25    12    13 1   
    26    12    14 1   
    27    12    80 1   
    28    13    81 1   
    29    14    15 1   
    30    14    17 1   
    31    14    82 1   
    32    15    16 1   
    33    15    83 1   
    34    15    84 1   
    35    16    85 1   
    36    18    19 1   
    37    18    20 1   
    38    18    86 1   
    39    19    87 1   
    40    20    21 1   
    41    20    22 1   
    42    20    88 1   
    43    21    89 1   
    44    22    23 1   
    45    22    90 1   
    46    23    24 1   
    47    24    25 1   
    48    24    91 1   
    49    24    92 1   
    50    25    26 1   
    51    25    36 1   
    52    25    60 1   
    53    26    27 1   
    54    26    93 1   
    55    26    94 1   
    56    27    28 1   
    57    27    95 1   
    58    27    96 1   
    59    28    29 1   
    60    28    97 1   
    61    28    98 1   
    62    29    30 1   
    63    29    99 1   
    64    29   100 1   
    65    30    31 1   
    66    30    35 1   
    67    30   101 1   
    68    31    32 1   
    69    31   102 1   
    70    31   103 1   
    71    32    33 1   
    72    32   104 1   
    73    32   105 1   
    74    33    34 1   
    75    33   106 1   
    76    33   107 1   
    77    34    35 1   
    78    34   108 1   
    79    34   109 1   
    80    35   110 1   
    81    35   111 1   
    82    36    37 1   
    83    36   112 1   
    84    36   113 1   
    85    37    38 1   
    86    38    39 1   
    87    38    59 1   
    88    38   114 1   
    89    39    40 1   
    90    39    41 1   
    91    39   115 1   
    92    40   116 1   
    93    41    42 1   
    94    41    43 1   
    95    41   117 1   
    96    42   118 1   
    97    43    44 1   
    98    43    56 1   
    99    43   119 1   
   100    44    45 1   
   101    45    46 1   
   102    45    55 1   
   103    45   120 1   
   104    46    47 1   
   105    46    48 1   
   106    46   121 1   
   107    47   122 1   
   108    48    49 1   
   109    48    50 1   
   110    48   123 1   
   111    49   124 1   
   112    50    51 1   
   113    50    52 1   
   114    50   125 1   
   115    51   126 1   
   116    52    53 1   
   117    52    55 1   
   118    52   127 1   
   119    53    54 1   
   120    53   128 1   
   121    53   129 1   
   122    54   130 1   
   123    56    57 1   
   124    56    59 1   
   125    56   131 1   
   126    57    58 1   
   127    57   132 1   
   128    57   133 1   
   129    58   134 1   
   130    60    61 1   
   131    60   135 1   
   132    60   136 1   
   133    61    62 1   
   134    61   137 1   
   135    61   138 1   
   136    62    63 1   
   137    62   139 1   
   138    62   140 1   
   139    63    64 1   
   140    63   141 1   
   141    63   142 1   
   142    64    65 1   
   143    64    69 1   
   144    64   143 1   
   145    65    66 1   
   146    65   144 1   
   147    65   145 1   
   148    66    67 1   
   149    66   146 1   
   150    66   147 1   
   151    67    68 1   
   152    67   148 1   
   153    67   149 1   
   154    68    69 1   
   155    68   150 1   
   156    68   151 1   
   157    69   152 1   
   158    69   153 1   
@<TRIPOS>SUBSTRUCTURE
     1 C6N         1 TEMP              0 ****  ****    0 ROOT
