@<TRIPOS>MOLECULE
C6N
  153   158     1     0     0
SMALL
bcc


@<TRIPOS>ATOM
      1 O01          4.5100     2.5200     1.1630 oh         1 C6N      -0.595800
      2 C02          5.3720     1.7970     0.3120 c3         1 C6N       0.139400
      3 C03          5.1220     0.3210     0.5190 c6         1 C6N       0.139100
      4 O04          3.8460     0.0250    -0.0030 os         1 C6N      -0.422600
      5 C05          6.1630    -0.5680    -0.1790 c6         1 C6N       0.133600
      6 O06          7.4340    -0.4230     0.4150 os         1 C6N      -0.452600
      7 C07          8.4890     0.1450    -0.3080 c6         1 C6N       0.318900
      8 C08          9.7160    -0.7520    -0.1470 c6         1 C6N       0.094100
      9 O09          9.5060    -2.0540    -0.6260 oh         1 C6N      -0.602800
     10 C10         10.1740    -0.7350     1.3090 c6         1 C6N       0.083600
     11 O11         11.3810    -1.4410     1.4840 oh         1 C6N      -0.605300
     12 C12         10.4210     0.7020     1.7530 c6         1 C6N       0.128100
     13 O13         10.7200     0.7800     3.1250 oh         1 C6N      -0.597300
     14 C14          9.1730     1.5480     1.4940 c6         1 C6N       0.145100
     15 C15          9.4150     3.0180     1.7650 c3         1 C6N       0.146400
     16 O16          8.2010     3.7130     1.6020 oh         1 C6N      -0.598300
     17 O17          8.7800     1.4350     0.1330 os         1 C6N      -0.409100
     18 C18          5.7670    -2.0330    -0.0220 c6         1 C6N       0.140100
     19 O19          6.6790    -2.8110    -0.7630 oh         1 C6N      -0.605300
     20 C20          4.3310    -2.2680    -0.4670 c6         1 C6N       0.091600
     21 O21          4.0100    -3.6030    -0.1700 oh         1 C6N      -0.602800
     22 C22          3.4210    -1.2860     0.2640 c6         1 C6N       0.316400
     23 O23          2.1470    -1.4450    -0.2250 os         1 C6N      -0.402600
     24 C24          1.1140    -0.8040     0.5050 c3         1 C6N       0.143400
     25 C25          0.0730    -0.2260    -0.4590 c3         1 C6N      -0.045000
     26 C26         -0.4590    -1.3120    -1.4150 c3         1 C6N      -0.062900
     27 C27         -1.1230    -2.5220    -0.7680 c3         1 C6N      -0.076900
     28 C28         -1.7380    -3.4810    -1.7830 c3         1 C6N      -0.069900
     29 C29         -2.5220    -4.5930    -1.0930 c3         1 C6N      -0.074900
     30 C30         -3.3450    -5.4890    -2.0150 c6         1 C6N      -0.059700
     31 C31         -2.4780    -6.3390    -2.9440 c6         1 C6N      -0.070150
     32 C32         -3.3150    -7.2650    -3.8230 c6         1 C6N      -0.073150
     33 C33         -4.2350    -8.1490    -2.9860 c6         1 C6N      -0.074400
     34 C34         -5.1150    -7.3080    -2.0680 c6         1 C6N      -0.073150
     35 C35         -4.2740    -6.3840    -1.1940 c6         1 C6N      -0.070150
     36 C36         -1.0540     0.3110     0.4220 c3         1 C6N       0.143400
     37 O37         -2.0430     0.9140    -0.3920 os         1 C6N      -0.402600
     38 C38         -3.3080     0.9550     0.1440 c6         1 C6N       0.316400
     39 C39         -4.1230     1.9850    -0.6290 c6         1 C6N       0.091600
     40 O40         -3.6180     3.2850    -0.4580 oh         1 C6N      -0.602800
     41 C41         -5.5490     1.9700    -0.1020 c6         1 C6N       0.140100
     42 O42         -6.3960     2.8050    -0.8570 oh         1 C6N      -0.605300
     43 C43         -6.1320     0.5600    -0.1340 c6         1 C6N       0.133600
     44 O44         -7.3780     0.6190     0.5240 os         1 C6N      -0.452600
     45 C45         -8.5300     0.1390    -0.1080 c6         1 C6N       0.318900
     46 C46         -9.6230     1.2040     0.0090 c6         1 C6N       0.094100
     47 O47         -9.2640     2.4200    -0.5900 oh         1 C6N      -0.602800
     48 C48        -10.0230     1.3710     1.4720 c6         1 C6N       0.083600
     49 O49        -11.1180     2.2470     1.6120 oh         1 C6N      -0.605300
     50 C50        -10.4410     0.0210     2.0430 c6         1 C6N       0.128100
     51 O51        -10.7010     0.0940     3.4240 oh         1 C6N      -0.597300
     52 C52         -9.3190    -0.9970     1.8320 c6         1 C6N       0.145100
     53 C53         -9.7290    -2.3940     2.2480 c3         1 C6N       0.146400
     54 O54         -8.6200    -3.2510     2.1210 oh         1 C6N      -0.598300
     55 O55         -8.9660    -1.0570     0.4570 os         1 C6N      -0.409100
     56 C56         -5.1780    -0.4150     0.5730 c6         1 C6N       0.139100
     57 C57         -5.6180    -1.8570     0.4360 c3         1 C6N       0.139400
     58 O58         -4.7890    -2.6630     1.2430 oh         1 C6N      -0.595800
     59 O59         -3.8970    -0.3110    -0.0070 os         1 C6N      -0.422600
     60 C60          0.6970     0.8990    -1.3070 c3         1 C6N      -0.062900
     61 C61          1.0600     2.1860    -0.5730 c3         1 C6N      -0.076900
     62 C62          1.8940     3.1260    -1.4350 c3         1 C6N      -0.069900
     63 C63          2.1470     4.4680    -0.7580 c3         1 C6N      -0.074900
     64 C64          2.9970     5.4530    -1.5570 c6         1 C6N      -0.059700
     65 C65          4.4110     4.9330    -1.8220 c6         1 C6N      -0.070150
     66 C66          5.2680     5.9420    -2.5800 c6         1 C6N      -0.073150
     67 C67          5.3220     7.2840    -1.8590 c6         1 C6N      -0.074400
     68 C68          3.9180     7.8200    -1.6030 c6         1 C6N      -0.073150
     69 C69          3.0670     6.8050    -0.8460 c6         1 C6N      -0.070150
     70 H1           4.7480     3.4490     1.1070 ho         1 C6N       0.410000
     71 H2           5.1980     2.0400    -0.7460 h1         1 C6N       0.046950
     72 H3           6.4160     2.0250     0.5310 h1         1 C6N       0.046950
     73 H4           5.1580     0.1020     1.5990 h1         1 C6N       0.061200
     74 H5           6.2000    -0.3070    -1.2470 h1         1 C6N       0.066700
     75 H6           8.2240     0.2410    -1.3670 h2         1 C6N       0.084700
     76 H7          10.5150    -0.3180    -0.7600 h1         1 C6N       0.089200
     77 H8           8.5980    -2.3340    -0.4290 ho         1 C6N       0.437000
     78 H9           9.3820    -1.1640     1.9420 h1         1 C6N       0.057200
     79 H10         11.2160    -2.3710     1.2960 ho         1 C6N       0.425000
     80 H11         11.2470     1.1080     1.1450 h1         1 C6N       0.049700
     81 H12         11.4730     0.2060     3.2970 ho         1 C6N       0.426500
     82 H13          8.3670     1.1980     2.1540 h1         1 C6N       0.075700
     83 H14          9.8060     3.1220     2.7820 h1         1 C6N       0.037200
     84 H15         10.1930     3.3850     1.0810 h1         1 C6N       0.037200
     85 H16          8.3660     4.6450     1.7690 ho         1 C6N       0.406000
     86 H17          5.8350    -2.2800     1.0500 h1         1 C6N       0.055700
     87 H18          6.5270    -3.7400    -0.5610 ho         1 C6N       0.430000
     88 H19          4.2520    -2.0640    -1.5460 h1         1 C6N       0.068200
     89 H20          3.1430    -3.7970    -0.5410 ho         1 C6N       0.429500
     90 H21          3.4690    -1.4760     1.3530 h2         1 C6N       0.035200
     91 H22          0.6460    -1.5320     1.1790 h1         1 C6N       0.040950
     92 H23          1.5200    -0.0040     1.1300 h1         1 C6N       0.040950
     93 H24         -1.1790    -0.8380    -2.0880 hc         1 C6N       0.048450
     94 H25          0.3680    -1.6460    -2.0480 hc         1 C6N       0.048450
     95 H26         -0.4050    -3.0730    -0.1520 hc         1 C6N       0.042700
     96 H27         -1.9270    -2.2010    -0.1010 hc         1 C6N       0.042700
     97 H28         -2.4170    -2.9220    -2.4380 hc         1 C6N       0.036950
     98 H29         -0.9600    -3.8980    -2.4300 hc         1 C6N       0.036950
     99 H30         -1.8370    -5.2150    -0.5030 hc         1 C6N       0.039200
    100 H31         -3.1990    -4.1220    -0.3730 hc         1 C6N       0.039200
    101 H32         -3.9750    -4.8400    -2.6410 hc         1 C6N       0.045200
    102 H33         -1.8540    -5.6960    -3.5700 hc         1 C6N       0.035825
    103 H34         -1.7910    -6.9390    -2.3340 hc         1 C6N       0.035825
    104 H35         -3.9210    -6.6630    -4.5100 hc         1 C6N       0.037450
    105 H36         -2.6620    -7.8810    -4.4470 hc         1 C6N       0.037450
    106 H37         -4.8510    -8.7760    -3.6350 hc         1 C6N       0.036450
    107 H38         -3.6280    -8.8310    -2.3800 hc         1 C6N       0.036450
    108 H39         -5.8010    -6.7070    -2.6760 hc         1 C6N       0.037450
    109 H40         -5.7390    -7.9520    -1.4440 hc         1 C6N       0.037450
    110 H41         -3.6700    -6.9870    -0.5040 hc         1 C6N       0.035825
    111 H42         -4.9240    -5.7610    -0.5700 hc         1 C6N       0.035825
    112 H43         -1.4820    -0.5040     1.0130 h1         1 C6N       0.040950
    113 H44         -0.6650     1.0490     1.1350 h1         1 C6N       0.040950
    114 H45         -3.2860     1.2300     1.2160 h2         1 C6N       0.035200
    115 H46         -4.1280     1.6920    -1.6900 h1         1 C6N       0.068200
    116 H47         -2.7680     3.3380    -0.9070 ho         1 C6N       0.429500
    117 H48         -5.5270     2.2950     0.9500 h1         1 C6N       0.055700
    118 H49         -6.1200     3.7190    -0.7330 ho         1 C6N       0.430000
    119 H50         -6.2590     0.2410    -1.1790 h1         1 C6N       0.066700
    120 H51         -8.3310    -0.0810    -1.1630 h2         1 C6N       0.084700
    121 H52        -10.4950     0.8290    -0.5410 h1         1 C6N       0.089200
    122 H53         -8.3180     2.5930    -0.4510 ho         1 C6N       0.437000
    123 H54         -9.1590     1.7370     2.0470 h1         1 C6N       0.057200
    124 H55        -10.8420     3.1190     1.3100 ho         1 C6N       0.425000
    125 H56        -11.3320    -0.3230     1.4910 h1         1 C6N       0.049700
    126 H57        -11.4050     0.7360     3.5630 ho         1 C6N       0.426500
    127 H58         -8.4520    -0.6930     2.4350 h1         1 C6N       0.075700
    128 H59        -10.0910    -2.3510     3.2810 h1         1 C6N       0.037200
    129 H60        -10.5740    -2.7200     1.6250 h1         1 C6N       0.037200
    130 H61         -8.8710    -4.1130     2.4670 ho         1 C6N       0.406000
    131 H62         -5.1390    -0.1460     1.6420 h1         1 C6N       0.061200
    132 H63         -6.6640    -1.9480     0.7350 h1         1 C6N       0.046950
    133 H64         -5.5540    -2.1400    -0.6240 h1         1 C6N       0.046950
    134 H65         -5.1680    -3.5460     1.2660 ho         1 C6N       0.410000
    135 H66          1.5940     0.5020    -1.7900 hc         1 C6N       0.048450
    136 H67          0.0110     1.1450    -2.1230 hc         1 C6N       0.048450
    137 H68          0.1490     2.7040    -0.2550 hc         1 C6N       0.042700
    138 H69          1.6310     1.9670     0.3330 hc         1 C6N       0.042700
    139 H70          2.8430     2.6300    -1.6610 hc         1 C6N       0.036950
    140 H71          1.3960     3.2940    -2.3970 hc         1 C6N       0.036950
    141 H72          1.1820     4.9380    -0.5360 hc         1 C6N       0.039200
    142 H73          2.6220     4.2910     0.2130 hc         1 C6N       0.039200
    143 H74          2.5120     5.6130    -2.5310 hc         1 C6N       0.045200
    144 H75          4.8890     4.7050    -0.8610 hc         1 C6N       0.035825
    145 H76          4.3760     3.9920    -2.3770 hc         1 C6N       0.035825
    146 H77          6.2760     5.5440    -2.7220 hc         1 C6N       0.037450
    147 H78          4.8490     6.0900    -3.5820 hc         1 C6N       0.037450
    148 H79          5.8440     7.1600    -0.9030 hc         1 C6N       0.036450
    149 H80          5.9050     8.0040    -2.4390 hc         1 C6N       0.036450
    150 H81          3.9660     8.7610    -1.0480 hc         1 C6N       0.037450
    151 H82          3.4390     8.0490    -2.5610 hc         1 C6N       0.037450
    152 H83          2.0570     7.1980    -0.6960 hc         1 C6N       0.035825
    153 H84          3.4890     6.6560     0.1570 hc         1 C6N       0.035825
@<TRIPOS>BOND
     1     1     2 1   
     2     1    70 1   
     3     2     3 1   
     4     2    71 1   
     5     2    72 1   
     6     3     4 1   
     7     3     5 1   
     8     3    73 1   
     9     4    22 1   
    10     5     6 1   
    11     5    18 1   
    12     5    74 1   
    13     6     7 1   
    14     7     8 1   
    15     7    17 1   
    16     7    75 1   
    17     8     9 1   
    18     8    10 1   
    19     8    76 1   
    20     9    77 1   
    21    10    11 1   
    22    10    12 1   
    23    10    78 1   
    24    11    79 1   
    25    12    13 1   
    26    12    14 1   
    27    12    80 1   
    28    13    81 1   
    29    14    15 1   
    30    14    17 1   
    31    14    82 1   
    32    15    16 1   
    33    15    83 1   
    34    15    84 1   
    35    16    85 1   
    36    18    19 1   
    37    18    20 1   
    38    18    86 1   
    39    19    87 1   
    40    20    21 1   
    41    20    22 1   
    42    20    88 1   
    43    21    89 1   
    44    22    23 1   
    45    22    90 1   
    46    23    24 1   
    47    24    25 1   
    48    24    91 1   
    49    24    92 1   
    50    25    26 1   
    51    25    36 1   
    52    25    60 1   
    53    26    27 1   
    54    26    93 1   
    55    26    94 1   
    56    27    28 1   
    57    27    95 1   
    58    27    96 1   
    59    28    29 1   
    60    28    97 1   
    61    28    98 1   
    62    29    30 1   
    63    29    99 1   
    64    29   100 1   
    65    30    31 1   
    66    30    35 1   
    67    30   101 1   
    68    31    32 1   
    69    31   102 1   
    70    31   103 1   
    71    32    33 1   
    72    32   104 1   
    73    32   105 1   
    74    33    34 1   
    75    33   106 1   
    76    33   107 1   
    77    34    35 1   
    78    34   108 1   
    79    34   109 1   
    80    35   110 1   
    81    35   111 1   
    82    36    37 1   
    83    36   112 1   
    84    36   113 1   
    85    37    38 1   
    86    38    39 1   
    87    38    59 1   
    88    38   114 1   
    89    39    40 1   
    90    39    41 1   
    91    39   115 1   
    92    40   116 1   
    93    41    42 1   
    94    41    43 1   
    95    41   117 1   
    96    42   118 1   
    97    43    44 1   
    98    43    56 1   
    99    43   119 1   
   100    44    45 1   
   101    45    46 1   
   102    45    55 1   
   103    45   120 1   
   104    46    47 1   
   105    46    48 1   
   106    46   121 1   
   107    47   122 1   
   108    48    49 1   
   109    48    50 1   
   110    48   123 1   
   111    49   124 1   
   112    50    51 1   
   113    50    52 1   
   114    50   125 1   
   115    51   126 1   
   116    52    53 1   
   117    52    55 1   
   118    52   127 1   
   119    53    54 1   
   120    53   128 1   
   121    53   129 1   
   122    54   130 1   
   123    56    57 1   
   124    56    59 1   
   125    56   131 1   
   126    57    58 1   
   127    57   132 1   
   128    57   133 1   
   129    58   134 1   
   130    60    61 1   
   131    60   135 1   
   132    60   136 1   
   133    61    62 1   
   134    61   137 1   
   135    61   138 1   
   136    62    63 1   
   137    62   139 1   
   138    62   140 1   
   139    63    64 1   
   140    63   141 1   
   141    63   142 1   
   142    64    65 1   
   143    64    69 1   
   144    64   143 1   
   145    65    66 1   
   146    65   144 1   
   147    65   145 1   
   148    66    67 1   
   149    66   146 1   
   150    66   147 1   
   151    67    68 1   
   152    67   148 1   
   153    67   149 1   
   154    68    69 1   
   155    68   150 1   
   156    68   151 1   
   157    69   152 1   
   158    69   153 1   
@<TRIPOS>SUBSTRUCTURE
     1 C6N         1 TEMP              0 ****  ****    0 ROOT
