@<TRIPOS>MOLECULE
C6O
   84    89     1     0     0
SMALL
No Charge or Current Charge


@<TRIPOS>ATOM
      1 C14        -52.7510     1.2860   -24.1550 ca         1 C6O       0.315900
      2 C11        -49.8370    -4.5230   -20.7310 c3         1 C6O      -0.075100
      3 C10        -50.0140    -3.2630   -21.6080 c3         1 C6O      -0.158400
      4 C13        -50.4370    -0.6390   -22.9190 c6         1 C6O       0.096000
      5 C02        -51.5030     0.4570   -26.1090 c          1 C6O       0.580200
      6 C04        -50.3020     0.5630   -23.8990 c6         1 C6O       0.089700
      7 C05        -49.7570     1.8430   -23.2180 c6         1 C6O      -0.078400
      8 C06        -48.4330     1.5070   -22.5170 c6         1 C6O      -0.090400
      9 C07        -48.6340     0.4070   -21.4530 c6         1 C6O       0.089000
     10 C16        -53.9590     1.8760   -22.2920 ca         1 C6O       0.428900
     11 C18        -53.0630     1.8120   -19.9160 ca         1 C6O       0.271000
     12 C19        -52.7760     2.7730   -18.9340 ca         1 C6O      -0.142000
     13 C20        -51.8170     2.5130   -17.9300 ca         1 C6O      -0.069300
     14 C21        -51.5030     3.5960   -16.9000 c3         1 C6O      -0.046800
     15 C22        -51.1490     1.2630   -17.9060 ca         1 C6O       0.278000
     16 C24        -48.7820     0.5940   -17.3350 c6         1 C6O       0.197300
     17 C25        -47.9340    -0.0680   -16.1970 c6         1 C6O       0.164800
     18 C27        -47.1560     0.2320   -13.8510 c3         1 C6O       0.156100
     19 C28        -49.5400     0.6100   -14.4500 c6         1 C6O       0.164800
     20 C29        -50.6080     0.4470   -15.5940 c6         1 C6O       0.197300
     21 C30        -51.4700     0.2920   -18.8720 ca         1 C6O      -0.146000
     22 C31        -52.4220     0.5640   -19.8680 ca         1 C6O      -0.117000
     23 C33        -55.0390     1.9860   -24.2880 ca         1 C6O       0.204900
     24 C34        -53.8740     1.5410   -24.9570 ca         1 C6O      -0.301800
     25 C35        -53.8550     1.3650   -26.4110 cc         1 C6O       0.088600
     26 C36        -55.0360     1.8030   -27.2560 c3         1 C6O      -0.068900
     27 C37        -52.6820     0.8400   -26.9500 cd         1 C6O      -0.179400
     28 C38        -52.6230     0.4590   -28.3810 ca         1 C6O       0.005200
     29 C39        -51.6170     0.9590   -29.2470 ca         1 C6O       0.090000
     30 C41        -51.5850     0.5480   -30.5960 ca         1 C6O       0.179000
     31 C43        -52.5410    -0.3500   -31.0920 ca         1 C6O      -0.141000
     32 C44        -53.5470    -0.8390   -30.2440 ca         1 C6O      -0.085000
     33 C45        -53.5870    -0.4340   -28.9000 ca         1 C6O      -0.106000
     34 F1         -50.6390     1.0320   -31.4340 f          1 C6O      -0.161000
     35 N03        -51.5380     0.7950   -24.7410 n          1 C6O      -0.363300
     36 N08        -49.3160    -0.8340   -21.9390 n          1 C6O      -0.410800
     37 N15        -52.8090     1.4450   -22.8210 nb         1 C6O      -0.297000
     38 N17        -53.9810     2.1050   -20.9260 nu         1 C6O      -0.907900
     39 N23        -50.1780     0.9690   -16.9270 nh         1 C6O      -0.781400
     40 N26        -48.1100     0.6450   -14.9020 n3         1 C6O      -0.707600
     41 N32        -55.0800     2.1690   -22.9560 nb         1 C6O      -0.264000
     42 O01        -50.5460    -0.1400   -26.5870 o          1 C6O      -0.525000
     43 O12        -48.5820    -2.0230   -20.1170 o          1 C6O      -0.616100
     44 Cl1        -50.4620     2.1840   -28.6950 cl         1 C6O      -0.165000
     45 H1         -50.4090    -5.3610   -21.1460 hc         1 C6O       0.040033
     46 H2         -48.7810    -4.8190   -20.6840 hc         1 C6O       0.040033
     47 H3         -50.1920    -4.3390   -19.7100 hc         1 C6O       0.040033
     48 H4         -49.7310    -3.4590   -22.6490 hc         1 C6O       0.060700
     49 H5         -51.0740    -3.0060   -21.7160 hc         1 C6O       0.060700
     50 H6         -51.3660    -0.5540   -22.3460 h1         1 C6O       0.055200
     51 H7         -50.5400    -1.5390   -23.5390 h1         1 C6O       0.055200
     52 H8         -49.4840     0.2660   -24.5690 h1         1 C6O       0.093700
     53 H9         -49.5950     2.6260   -23.9700 hc         1 C6O       0.061700
     54 H10        -50.4530     2.2540   -22.4770 hc         1 C6O       0.061700
     55 H11        -47.6900     1.1730   -23.2560 hc         1 C6O       0.051700
     56 H12        -48.0190     2.4070   -22.0440 hc         1 C6O       0.051700
     57 H13        -49.2270     0.8220   -20.6250 h1         1 C6O       0.060700
     58 H14        -47.6490     0.1460   -21.0400 h1         1 C6O       0.060700
     59 H15        -53.2790     3.7360   -18.9660 ha         1 C6O       0.109000
     60 H16        -51.8690     3.3100   -15.9070 hc         1 C6O       0.045367
     61 H17        -50.4230     3.7680   -16.8240 hc         1 C6O       0.045367
     62 H18        -51.9680     4.5540   -17.1600 hc         1 C6O       0.045367
     63 H19        -48.7980    -0.0890   -18.1950 h1         1 C6O       0.042450
     64 H20        -48.2580     1.5040   -17.6620 h1         1 C6O       0.042450
     65 H21        -48.2340    -1.1210   -16.0920 h1         1 C6O       0.034200
     66 H22        -46.8770    -0.0640   -16.5030 h1         1 C6O       0.034200
     67 H23        -47.2910     0.8390   -12.9460 h1         1 C6O       0.029367
     68 H24        -47.3010    -0.8240   -13.5840 h1         1 C6O       0.029367
     69 H25        -46.1210     0.3600   -14.1950 h1         1 C6O       0.029367
     70 H26        -49.6970    -0.2110   -13.7360 h1         1 C6O       0.034200
     71 H27        -49.7580     1.5390   -13.9030 h1         1 C6O       0.034200
     72 H28        -51.5420     0.9320   -15.2730 h1         1 C6O       0.042450
     73 H29        -50.8320    -0.6250   -15.6960 h1         1 C6O       0.042450
     74 H30        -50.9830    -0.6780   -18.8450 ha         1 C6O       0.130000
     75 H31        -52.6730    -0.2000   -20.5960 ha         1 C6O       0.145000
     76 H32        -55.9650     2.2040   -24.8150 h4         1 C6O       0.027100
     77 H33        -55.4270     2.7690   -26.9170 hc         1 C6O       0.057033
     78 H34        -54.7700     1.9440   -28.3090 hc         1 C6O       0.057033
     79 H35        -55.8480     1.0680   -27.2040 hc         1 C6O       0.057033
     80 H36        -52.5060    -0.6580   -32.1340 ha         1 C6O       0.136000
     81 H37        -54.2920    -1.5340   -30.6260 ha         1 C6O       0.122000
     82 H38        -54.3610    -0.8350   -28.2490 ha         1 C6O       0.123000
     83 H39        -54.7310     2.7370   -20.6480 hn         1 C6O       0.514000
     84 C09        -49.2570    -2.0010   -21.1390 c          1 C6O       0.607100
@<TRIPOS>BOND
     1     1    24 ar  
     2     1    35 1   
     3     1    37 ar  
     4     2     3 1   
     5     2    45 1   
     6     2    46 1   
     7     2    47 1   
     8     3    48 1   
     9     3    49 1   
    10     3    84 1   
    11     4     6 1   
    12     4    36 1   
    13     4    50 1   
    14     4    51 1   
    15     5    27 1   
    16     5    35 1   
    17     5    42 2   
    18     6     7 1   
    19     6    35 1   
    20     6    52 1   
    21     7     8 1   
    22     7    53 1   
    23     7    54 1   
    24     8     9 1   
    25     8    55 1   
    26     8    56 1   
    27     9    36 1   
    28     9    57 1   
    29     9    58 1   
    30    10    37 ar  
    31    10    38 1   
    32    10    41 ar  
    33    11    12 ar  
    34    11    22 ar  
    35    11    38 1   
    36    12    13 ar  
    37    12    59 1   
    38    13    14 1   
    39    13    15 ar  
    40    14    60 1   
    41    14    61 1   
    42    14    62 1   
    43    15    21 ar  
    44    15    39 1   
    45    16    17 1   
    46    16    39 1   
    47    16    63 1   
    48    16    64 1   
    49    17    40 1   
    50    17    65 1   
    51    17    66 1   
    52    18    40 1   
    53    18    67 1   
    54    18    68 1   
    55    18    69 1   
    56    19    20 1   
    57    19    40 1   
    58    19    70 1   
    59    19    71 1   
    60    20    39 1   
    61    20    72 1   
    62    20    73 1   
    63    21    22 ar  
    64    21    74 1   
    65    22    75 1   
    66    23    24 ar  
    67    23    41 ar  
    68    23    76 1   
    69    24    25 1   
    70    25    26 1   
    71    25    27 2   
    72    26    77 1   
    73    26    78 1   
    74    26    79 1   
    75    27    28 1   
    76    28    29 ar  
    77    28    33 ar  
    78    29    30 ar  
    79    29    44 1   
    80    30    31 ar  
    81    30    34 1   
    82    31    32 ar  
    83    31    80 1   
    84    32    33 ar  
    85    32    81 1   
    86    33    82 1   
    87    36    84 1   
    88    38    83 1   
    89    43    84 2   
@<TRIPOS>SUBSTRUCTURE
     1 C6O         1 TEMP              0 ****  ****    0 ROOT
