@<TRIPOS>MOLECULE
C6O
   84    89     1     0     0
SMALL
abcg2


@<TRIPOS>ATOM
      1 C14        -52.5260     1.1900   -24.2910 ca         1 C6O       0.315900
      2 C11        -50.5750    -2.9920   -19.5000 c3         1 C6O      -0.075100
      3 C10        -50.6220    -2.3500   -20.8760 c3         1 C6O      -0.158400
      4 C13        -50.4020    -0.9850   -23.3760 c6         1 C6O       0.096000
      5 C02        -51.5600     0.3170   -26.3220 c          1 C6O       0.580200
      6 C04        -50.2220     0.2400   -24.2880 c6         1 C6O       0.089700
      7 C05        -49.5010     1.3890   -23.5930 c6         1 C6O      -0.078400
      8 C06        -48.0780     0.9300   -23.2400 c6         1 C6O      -0.090400
      9 C07        -48.0130    -0.5840   -23.0230 c6         1 C6O       0.089000
     10 C16        -53.4470     1.9430   -22.3570 ca         1 C6O       0.428900
     11 C18        -52.5230     1.8010   -20.0220 ca         1 C6O       0.271000
     12 C19        -52.8390     2.1960   -18.7190 ca         1 C6O      -0.142000
     13 C20        -52.0280     1.9120   -17.6320 ca         1 C6O      -0.069300
     14 C21        -52.4040     2.4580   -16.2860 c3         1 C6O      -0.046800
     15 C22        -50.8460     1.1630   -17.8330 ca         1 C6O       0.278000
     16 C24        -48.6320     0.5030   -17.0400 c6         1 C6O       0.197300
     17 C25        -47.8910     0.1970   -15.7310 c6         1 C6O       0.164800
     18 C27        -47.6640     0.9480   -13.4520 c3         1 C6O       0.156100
     19 C28        -49.8270     0.4620   -14.3650 c6         1 C6O       0.164800
     20 C29        -50.5250     0.0570   -15.6640 c6         1 C6O       0.197300
     21 C30        -50.5240     0.8040   -19.1400 ca         1 C6O      -0.146000
     22 C31        -51.3330     1.1170   -20.2220 ca         1 C6O      -0.117000
     23 C33        -54.6580     2.2120   -24.2390 ca         1 C6O       0.204900
     24 C34        -53.6670     1.5950   -25.0060 ca         1 C6O      -0.301800
     25 C35        -53.7730     1.3780   -26.4170 cc         1 C6O       0.088600
     26 C36        -54.9920     1.8560   -27.1400 c3         1 C6O      -0.068900
     27 C37        -52.7500     0.7460   -27.0380 cd         1 C6O      -0.179400
     28 C38        -52.7550     0.4320   -28.4830 ca         1 C6O       0.005200
     29 C39        -52.0210     1.2020   -29.3800 ca         1 C6O       0.090000
     30 C41        -52.0350     0.8980   -30.7310 ca         1 C6O       0.179000
     31 C43        -52.7640    -0.1650   -31.2230 ca         1 C6O      -0.141000
     32 C44        -53.4970    -0.9360   -30.3330 ca         1 C6O      -0.085000
     33 C45        -53.4910    -0.6400   -28.9780 ca         1 C6O      -0.106000
     34 F1         -51.3240     1.6560   -31.5680 f          1 C6O      -0.161000
     35 N03        -51.4820     0.6010   -24.9550 n          1 C6O      -0.363300
     36 N08        -49.2630    -1.0880   -22.4780 n          1 C6O      -0.410800
     37 N15        -52.4310     1.3580   -22.9770 nb         1 C6O      -0.297000
     38 N17        -53.4350     2.1430   -21.0210 nu         1 C6O      -0.907900
     39 N23        -50.0080     0.8590   -16.7570 nh         1 C6O      -0.781400
     40 N26        -48.4820     0.9370   -14.6400 n3         1 C6O      -0.707600
     41 N32        -54.5700     2.3960   -22.9470 nb         1 C6O      -0.264000
     42 O01        -50.6520    -0.2670   -26.8920 o          1 C6O      -0.525000
     43 O12        -48.3120    -1.8180   -20.5670 o          1 C6O      -0.616100
     44 CL1        -51.0950     2.5480   -28.8350 cl         1 C6O      -0.165000
     45 H1         -51.5390    -3.4470   -19.2760 hc         1 C6O       0.040033
     46 H2         -49.8160    -3.7690   -19.4360 hc         1 C6O       0.040033
     47 H3         -50.3690    -2.2540   -18.7240 hc         1 C6O       0.040033
     48 H4         -50.9070    -3.0900   -21.6310 hc         1 C6O       0.060700
     49 H5         -51.4140    -1.5980   -20.8950 hc         1 C6O       0.060700
     50 H6         -51.3180    -0.8890   -22.7990 h1         1 C6O       0.055200
     51 H7         -50.4950    -1.8820   -23.9980 h1         1 C6O       0.055200
     52 H8         -49.5810    -0.0640   -25.1130 h1         1 C6O       0.093700
     53 H9         -49.4680     2.2550   -24.2570 hc         1 C6O       0.061700
     54 H10        -50.0230     1.7010   -22.6950 hc         1 C6O       0.061700
     55 H11        -47.3790     1.1950   -24.0360 hc         1 C6O       0.051700
     56 H12        -47.7470     1.4500   -22.3400 hc         1 C6O       0.051700
     57 H13        -47.1990    -0.8470   -22.3550 h1         1 C6O       0.060700
     58 H14        -47.8210    -1.0950   -23.9720 h1         1 C6O       0.060700
     59 H15        -53.7420     2.7740   -18.5490 ha         1 C6O       0.109000
     60 H16        -52.9870     1.7490   -15.6940 hc         1 C6O       0.045367
     61 H17        -51.5180     2.7140   -15.7030 hc         1 C6O       0.045367
     62 H18        -53.0110     3.3570   -16.3910 hc         1 C6O       0.045367
     63 H19        -48.5460    -0.3800   -17.6900 h1         1 C6O       0.042450
     64 H20        -48.1550     1.3350   -17.5640 h1         1 C6O       0.042450
     65 H21        -47.8860    -0.8890   -15.5390 h1         1 C6O       0.034200
     66 H22        -46.8460     0.4890   -15.8430 h1         1 C6O       0.034200
     67 H23        -48.1430     1.5500   -12.6780 h1         1 C6O       0.029367
     68 H24        -47.4900    -0.0560   -13.0310 h1         1 C6O       0.029367
     69 H25        -46.6920     1.3940   -13.6670 h1         1 C6O       0.029367
     70 H26        -49.8290    -0.4080   -13.6880 h1         1 C6O       0.034200
     71 H27        -50.3850     1.2580   -13.8620 h1         1 C6O       0.034200
     72 H28        -51.6000     0.1810   -15.5600 h1         1 C6O       0.042450
     73 H29        -50.3640    -1.0120   -15.8680 h1         1 C6O       0.042450
     74 H30        -49.6180     0.2510   -19.3420 ha         1 C6O       0.130000
     75 H31        -51.0350     0.8160   -21.2100 ha         1 C6O       0.145000
     76 H32        -55.5660     2.5710   -24.7110 h4         1 C6O       0.027100
     77 H33        -55.1460     2.9220   -26.9740 hc         1 C6O       0.057033
     78 H34        -54.9200     1.6910   -28.2120 hc         1 C6O       0.057033
     79 H35        -55.8840     1.3390   -26.7820 hc         1 C6O       0.057033
     80 H36        -52.7550    -0.3820   -32.2830 ha         1 C6O       0.136000
     81 H37        -54.0730    -1.7730   -30.7020 ha         1 C6O       0.122000
     82 H38        -54.0650    -1.2450   -28.2880 ha         1 C6O       0.123000
     83 H39        -54.2710     2.6060   -20.6960 hn         1 C6O       0.514000
     84 C09        -49.3010    -1.7280   -21.2860 c          1 C6O       0.607100
@<TRIPOS>BOND
     1     1    24 ar  
     2     1    35 1   
     3     1    37 ar  
     4     2     3 1   
     5     2    45 1   
     6     2    46 1   
     7     2    47 1   
     8     3    48 1   
     9     3    49 1   
    10     3    84 1   
    11     4     6 1   
    12     4    36 1   
    13     4    50 1   
    14     4    51 1   
    15     5    27 1   
    16     5    35 1   
    17     5    42 2   
    18     6     7 1   
    19     6    35 1   
    20     6    52 1   
    21     7     8 1   
    22     7    53 1   
    23     7    54 1   
    24     8     9 1   
    25     8    55 1   
    26     8    56 1   
    27     9    36 1   
    28     9    57 1   
    29     9    58 1   
    30    10    37 ar  
    31    10    38 1   
    32    10    41 ar  
    33    11    12 ar  
    34    11    22 ar  
    35    11    38 1   
    36    12    13 ar  
    37    12    59 1   
    38    13    14 1   
    39    13    15 ar  
    40    14    60 1   
    41    14    61 1   
    42    14    62 1   
    43    15    21 ar  
    44    15    39 1   
    45    16    17 1   
    46    16    39 1   
    47    16    63 1   
    48    16    64 1   
    49    17    40 1   
    50    17    65 1   
    51    17    66 1   
    52    18    40 1   
    53    18    67 1   
    54    18    68 1   
    55    18    69 1   
    56    19    20 1   
    57    19    40 1   
    58    19    70 1   
    59    19    71 1   
    60    20    39 1   
    61    20    72 1   
    62    20    73 1   
    63    21    22 ar  
    64    21    74 1   
    65    22    75 1   
    66    23    24 ar  
    67    23    41 ar  
    68    23    76 1   
    69    24    25 1   
    70    25    26 1   
    71    25    27 2   
    72    26    77 1   
    73    26    78 1   
    74    26    79 1   
    75    27    28 1   
    76    28    29 ar  
    77    28    33 ar  
    78    29    30 ar  
    79    29    44 1   
    80    30    31 ar  
    81    30    34 1   
    82    31    32 ar  
    83    31    80 1   
    84    32    33 ar  
    85    32    81 1   
    86    33    82 1   
    87    36    84 1   
    88    38    83 1   
    89    43    84 2   
@<TRIPOS>SUBSTRUCTURE
     1 C6O         1 TEMP              0 ****  ****    0 ROOT
