@<TRIPOS>MOLECULE
C6P
   36    36     1     0     0
SMALL
abcg2


@<TRIPOS>ATOM
      1 N            4.0630    -1.6400    -1.1110 n7         1 C6P      -0.821400
      2 C            2.3940    -1.8430    -2.9150 c          1 C6P       0.710000
      3 O            1.3710    -2.0760    -2.2420 o          1 C6P      -0.714500
      4 P            0.1680     0.6830     2.5430 p5         1 C6P       1.275900
      5 OP3          1.0210     0.5520     3.8050 o          1 C6P      -0.930833
      6 OP1         -0.5850    -0.5940     2.1800 o          1 C6P      -0.930833
      7 OP2         -0.6470     1.9660     2.4490 o          1 C6P      -0.930833
      8 OP4          1.2740     0.9240     1.2700 os         1 C6P      -0.580400
      9 C5           3.6100     0.4760     1.0920 ca         1 C6P      -0.022300
     10 C6           4.0050     1.0810     2.2800 ca         1 C6P       0.317900
     11 N1           5.2040     1.6130     2.4740 nb         1 C6P      -0.688000
     12 C2           6.0940     1.5770     1.4900 ca         1 C6P       0.191300
     13 C2A          7.4450     2.1850     1.7370 c3         1 C6P      -0.119400
     14 C3           5.7880     0.9920     0.2570 ca         1 C6P       0.052100
     15 O3           6.6910     0.9440    -0.7490 oh         1 C6P      -0.554100
     16 C4           4.5260     0.4380     0.0400 ca         1 C6P      -0.096300
     17 C4A          4.1680    -0.2000    -1.2760 c3         1 C6P       0.216100
     18 CA           3.7340    -2.3610    -2.3320 c3         1 C6P       0.027500
     19 OXT          2.4500    -1.2400    -4.0030 o          1 C6P      -0.714500
     20 CB           3.6350    -3.8350    -1.9680 c3         1 C6P       0.150600
     21 SG           3.2710    -4.9160    -3.3850 sh         1 C6P      -0.612800
     22 HN           4.9520    -1.9840    -0.7630 hn         1 C6P       0.358000
     23 H5M1         2.0280    -0.5390     0.0310 h1         1 C6P       0.046200
     24 H5M2         2.1420    -0.9110     1.7300 h1         1 C6P       0.046200
     25 H6           3.3030     1.1260     3.1070 h4         1 C6P       0.096100
     26 H2A1         7.4890     2.5850     2.7470 hc         1 C6P       0.014367
     27 H2A2         8.2530     1.4550     1.6370 hc         1 C6P       0.014367
     28 H2A3         7.6620     3.0070     1.0490 hc         1 C6P       0.014367
     29 HO3          7.5230     1.3490    -0.4820 ho         1 C6P       0.428000
     30 H4A1         3.1970     0.1910    -1.5880 h1         1 C6P       0.054200
     31 H4A2         4.8780     0.0900    -2.0590 h1         1 C6P       0.054200
     32 HA           4.5120    -2.2400    -3.1020 h1         1 C6P       0.001700
     33 HB1          2.8800    -3.9790    -1.1970 h1         1 C6P       0.057700
     34 HB2          4.5870    -4.1970    -1.5750 h1         1 C6P       0.057700
     35 HSG          1.9790    -4.5990    -3.5190 hs         1 C6P       0.271800
     36 C5M          2.2110    -0.0860     1.0100 c3         1 C6P       0.261900
@<TRIPOS>BOND
     1     1    17 1   
     2     1    18 1   
     3     1    22 1   
     4     2     3 1   
     5     2    18 1   
     6     2    19 1   
     7     4     5 1   
     8     4     6 1   
     9     4     7 1   
    10     4     8 1   
    11     8    36 1   
    12     9    10 ar  
    13     9    16 ar  
    14     9    36 1   
    15    10    11 ar  
    16    10    25 1   
    17    11    12 ar  
    18    12    13 1   
    19    12    14 ar  
    20    13    26 1   
    21    13    27 1   
    22    13    28 1   
    23    14    15 1   
    24    14    16 ar  
    25    15    29 1   
    26    16    17 1   
    27    17    30 1   
    28    17    31 1   
    29    18    20 1   
    30    18    32 1   
    31    20    21 1   
    32    20    33 1   
    33    20    34 1   
    34    21    35 1   
    35    23    36 1   
    36    24    36 1   
@<TRIPOS>SUBSTRUCTURE
     1 C6P         1 TEMP              0 ****  ****    0 ROOT
