@<TRIPOS>MOLECULE
C6P
   36    36     1     0     0
SMALL
No Charge or Current Charge


@<TRIPOS>ATOM
      1 N            3.9970    -1.6390    -1.0270 n7         1 C6P      -0.821400
      2 C            2.1910    -2.0710    -2.8520 c          1 C6P       0.710000
      3 O            1.2260    -2.7020    -2.4350 o          1 C6P      -0.714500
      4 P           -0.1010     0.7800     2.2570 p5         1 C6P       1.275900
      5 OP3         -0.0490    -0.0510     3.4900 o          1 C6P      -0.930833
      6 OP1         -0.8300     0.0580     1.1810 o          1 C6P      -0.930833
      7 OP2         -0.8010     2.0580     2.5560 o          1 C6P      -0.930833
      8 OP4          1.3940     1.1140     1.7720 os         1 C6P      -0.580400
      9 C5           3.6900     0.5580     1.3230 ca         1 C6P      -0.022300
     10 C6           4.2420     1.1470     2.4790 ca         1 C6P       0.317900
     11 N1           5.5020     1.6450     2.5440 nb         1 C6P      -0.688000
     12 C2           6.2660     1.5680     1.4330 ca         1 C6P       0.191300
     13 C2A          7.6750     2.1410     1.5600 c3         1 C6P      -0.119400
     14 C3           5.8070     0.9920     0.2180 ca         1 C6P       0.052100
     15 O3           6.6340     0.9350    -0.8790 oh         1 C6P      -0.554100
     16 C4           4.4900     0.4730     0.1520 ca         1 C6P      -0.096300
     17 C4A          3.9630    -0.1650    -1.1360 c3         1 C6P       0.216100
     18 CA           3.6290    -2.3900    -2.2810 c3         1 C6P       0.027500
     19 OXT          2.0940    -1.2080    -3.7170 o          1 C6P      -0.714500
     20 CB           3.8150    -3.9130    -2.0520 c3         1 C6P       0.150600
     21 SG           3.6700    -4.9540    -3.5890 sh         1 C6P      -0.612800
     22 HN           4.9570    -1.8930    -0.7730 hn         1 C6P       0.358000
     23 H5M1         1.9350    -0.4230     0.4710 h1         1 C6P       0.046200
     24 H5M2         2.2310    -0.7610     2.1790 h1         1 C6P       0.046200
     25 H6           3.6480     1.2200     3.3920 h4         1 C6P       0.096100
     26 H2A1         7.8690     2.5500     2.5590 hc         1 C6P       0.014367
     27 H2A2         8.4310     1.3690     1.3720 hc         1 C6P       0.014367
     28 H2A3         7.8360     2.9520     0.8390 hc         1 C6P       0.014367
     29 HO3          7.4970     1.3350    -0.6400 ho         1 C6P       0.428000
     30 H4A1         2.9420     0.1930    -1.3280 h1         1 C6P       0.054200
     31 H4A2         4.5650     0.1660    -1.9930 h1         1 C6P       0.054200
     32 HA           4.3450    -2.1030    -3.0630 h1         1 C6P       0.001700
     33 HB1          3.0810    -4.2680    -1.3160 h1         1 C6P       0.057700
     34 HB2          4.8140    -4.0890    -1.6300 h1         1 C6P       0.057700
     35 HSG          2.3620    -4.6600    -3.8200 hs         1 C6P       0.271800
     36 C5M          2.2590     0.0290     1.4160 c3         1 C6P       0.261900
@<TRIPOS>BOND
     1     1    17 1   
     2     1    18 1   
     3     1    22 1   
     4     2     3 1   
     5     2    18 1   
     6     2    19 1   
     7     4     5 1   
     8     4     6 1   
     9     4     7 1   
    10     4     8 1   
    11     8    36 1   
    12     9    10 ar  
    13     9    16 ar  
    14     9    36 1   
    15    10    11 ar  
    16    10    25 1   
    17    11    12 ar  
    18    12    13 1   
    19    12    14 ar  
    20    13    26 1   
    21    13    27 1   
    22    13    28 1   
    23    14    15 1   
    24    14    16 ar  
    25    15    29 1   
    26    16    17 1   
    27    17    30 1   
    28    17    31 1   
    29    18    20 1   
    30    18    32 1   
    31    20    21 1   
    32    20    33 1   
    33    20    34 1   
    34    21    35 1   
    35    23    36 1   
    36    24    36 1   
@<TRIPOS>SUBSTRUCTURE
     1 C6P         1 TEMP              0 ****  ****    0 ROOT
