@<TRIPOS>MOLECULE
C6R
   54    57     1     0     0
SMALL
abcg2


@<TRIPOS>ATOM
      1 C1           0.0200    -1.4730    -2.2150 ca         1 C6R      -0.106000
      2 C2           1.3510    -1.7890    -2.4450 ca         1 C6R      -0.135000
      3 C3           2.3070    -1.5190    -1.4900 ca         1 C6R       0.160000
      4 C4           1.9980    -0.9270    -0.2690 ca         1 C6R      -0.065300
      5 C5           0.6630    -0.6160    -0.0620 ca         1 C6R      -0.128000
      6 C6           3.0810    -0.6130     0.7610 c6         1 C6R       0.244500
      7 C7           3.9130     0.5930     0.2220 c6         1 C6R      -0.042400
      8 O1          -7.1720     1.1250     1.4070 os         1 C6R      -0.472300
      9 C8           5.1280     0.8660     1.0990 c6         1 C6R       0.065600
     10 N3          -3.8110     0.3540     0.6190 nb         1 C6R      -0.623000
     11 C9           5.1040    -1.8820     1.0670 c2         1 C6R       0.702100
     12 C10         -2.7820    -0.6750    -1.3320 c          1 C6R       0.528600
     13 C11         -3.9810    -0.1780    -0.5930 ca         1 C6R       0.187500
     14 C12         -4.8620     0.7820     1.2700 ca         1 C6R       0.288900
     15 C13         -6.1380     0.6730     0.6910 ca         1 C6R       0.553300
     16 C14         -5.2430    -0.2730    -1.1500 ca         1 C6R       0.400900
     17 C15          2.4730    -0.3010     2.1320 c3         1 C6R      -0.090100
     18 F1          -8.9340    -0.1790     0.8550 f          1 C6R      -0.257000
     19 C17         -8.4460     1.1030     0.8420 c3         1 C6R       0.419600
     20 N4          -6.3200     0.1520    -0.4960 nb         1 C6R      -0.722000
     21 O           -2.8910    -1.1730    -2.4400 o          1 C6R      -0.585100
     22 C           -0.3300    -0.8780    -1.0070 ca         1 C6R      -0.038000
     23 F            3.5820    -1.8260    -1.7890 f          1 C6R      -0.173000
     24 N            3.8480    -1.8310     0.9380 n2         1 C6R      -0.694900
     25 S            6.2680    -0.5390     1.0740 ss         1 C6R      -0.394200
     26 C16          3.0790     1.8370     0.0170 ca         1 C6R      -0.072300
     27 C22          2.8540     2.7700     1.0280 ca         1 C6R      -0.103000
     28 C21          2.0740     3.8960     0.7990 ca         1 C6R      -0.110500
     29 C20          1.5030     4.1130    -0.4470 ca         1 C6R      -0.108000
     30 C19          1.7260     3.1970    -1.4660 ca         1 C6R      -0.110500
     31 C18          2.5080     2.0750    -1.2330 ca         1 C6R      -0.103000
     32 H1          -0.7130    -1.6920    -2.9740 ha         1 C6R       0.150000
     33 H2           1.6440    -2.2490    -3.3800 ha         1 C6R       0.134000
     34 H3           0.3640    -0.1460     0.8650 ha         1 C6R       0.118000
     35 H4           4.3010     0.3050    -0.7580 hc         1 C6R       0.084700
     36 H5           5.1530    -3.8770     1.2940 hn         1 C6R       0.468500
     37 H6           6.6010    -3.1180     1.6950 hn         1 C6R       0.468500
     38 H7          -1.7350    -0.0820     0.2600 hn         1 C6R       0.179000
     39 H8           5.6960     1.7070     0.7030 h1         1 C6R       0.077700
     40 H9           4.8690     1.0990     2.1290 h1         1 C6R       0.077700
     41 H10         -4.7250     1.2170     2.2530 h4         1 C6R       0.050100
     42 H11         -5.3990    -0.6990    -2.1320 h4         1 C6R       0.059100
     43 H12          1.8800    -1.1470     2.4810 hc         1 C6R       0.045033
     44 H13          3.2640    -0.1410     2.8640 hc         1 C6R       0.045033
     45 H14          1.8410     0.5850     2.1320 hc         1 C6R       0.045033
     46 H15         -9.0670     1.7220     1.4830 h2         1 C6R       0.070700
     47 H16         -8.4420     1.4630    -0.1860 h2         1 C6R       0.070700
     48 H17          3.2880     2.6350     2.0110 ha         1 C6R       0.113500
     49 H18          1.9140     4.6060     1.6010 ha         1 C6R       0.114000
     50 H19          0.8950     4.9910    -0.6240 ha         1 C6R       0.113000
     51 H20          1.2960     3.3570    -2.4460 ha         1 C6R       0.114000
     52 H21          2.6810     1.3740    -2.0410 ha         1 C6R       0.113500
     53 N1           5.7560    -3.0820     1.1450 nv         1 C6R      -1.003200
     54 N2          -1.6310    -0.5130    -0.6500 ns         1 C6R      -0.124000
@<TRIPOS>BOND
     1     1     2 ar  
     2     1    22 ar  
     3     1    32 1   
     4     2     3 ar  
     5     2    33 1   
     6     3     4 ar  
     7     3    23 1   
     8     4     5 ar  
     9     4     6 1   
    10     5    22 ar  
    11     5    34 1   
    12     6     7 1   
    13     6    17 1   
    14     6    24 1   
    15     7     9 1   
    16     7    26 1   
    17     7    35 1   
    18     8    15 1   
    19     8    19 1   
    20     9    25 1   
    21     9    39 1   
    22     9    40 1   
    23    10    13 ar  
    24    10    14 ar  
    25    11    24 2   
    26    11    25 1   
    27    11    53 1   
    28    12    13 1   
    29    12    21 2   
    30    12    54 1   
    31    13    16 ar  
    32    14    15 ar  
    33    14    41 1   
    34    15    20 ar  
    35    16    20 ar  
    36    16    42 1   
    37    17    43 1   
    38    17    44 1   
    39    17    45 1   
    40    18    19 1   
    41    19    46 1   
    42    19    47 1   
    43    22    54 1   
    44    26    27 ar  
    45    26    31 ar  
    46    27    28 ar  
    47    27    48 1   
    48    28    29 ar  
    49    28    49 1   
    50    29    30 ar  
    51    29    50 1   
    52    30    31 ar  
    53    30    51 1   
    54    31    52 1   
    55    36    53 1   
    56    37    53 1   
    57    38    54 1   
@<TRIPOS>SUBSTRUCTURE
     1 C6R         1 TEMP              0 ****  ****    0 ROOT
