@<TRIPOS>MOLECULE
C6R
   54    57     1     0     0
SMALL
No Charge or Current Charge


@<TRIPOS>ATOM
      1 C1           0.0340    -1.4250    -2.2790 ca         1 C6R      -0.106000
      2 C2           1.3760    -1.7270    -2.5510 ca         1 C6R      -0.135000
      3 C3           2.3710    -1.4900    -1.5910 ca         1 C6R       0.160000
      4 C4           2.0450    -0.9480    -0.3190 ca         1 C6R      -0.065300
      5 C5           0.6800    -0.6390    -0.0720 ca         1 C6R      -0.128000
      6 C6           3.1650    -0.6560     0.7350 c6         1 C6R       0.244500
      7 C7           4.0190     0.5710     0.2330 c6         1 C6R      -0.042400
      8 O1          -7.4080     1.2410     1.3950 os         1 C6R      -0.472300
      9 C8           5.2290     0.8400     1.1490 c6         1 C6R       0.065600
     10 N3          -3.8930     0.3870     0.6980 nb         1 C6R      -0.623000
     11 C9           5.1930    -1.9550     1.1230 c2         1 C6R       0.702100
     12 C10         -2.8680    -0.6030    -1.3660 c          1 C6R       0.528600
     13 C11         -4.0630    -0.0980    -0.5780 ca         1 C6R       0.187500
     14 C12         -5.0320     0.8150     1.3190 ca         1 C6R       0.288900
     15 C13         -6.3180     0.7640     0.7020 ca         1 C6R       0.553300
     16 C14         -5.3470    -0.1360    -1.1900 ca         1 C6R       0.400900
     17 C15          2.5680    -0.3840     2.1590 c3         1 C6R      -0.090100
     18 F1          -9.0510    -0.3440     1.1430 f          1 C6R      -0.257000
     19 C17         -8.7470     0.9630     0.9470 c3         1 C6R       0.419600
     20 N4          -6.4810     0.2950    -0.5640 nb         1 C6R      -0.722000
     21 O           -2.9770    -1.0420    -2.5080 o          1 C6R      -0.585100
     22 C           -0.3230    -0.8720    -1.0330 ca         1 C6R      -0.038000
     23 F            3.6490    -1.7770    -1.9310 f          1 C6R      -0.173000
     24 N            3.9350    -1.9110     0.9350 n2         1 C6R      -0.694900
     25 S            6.3460    -0.6120     1.2060 ss         1 C6R      -0.394200
     26 C16          3.1730     1.8390    -0.0220 ca         1 C6R      -0.072300
     27 C22          2.9350     2.7960     0.9910 ca         1 C6R      -0.103000
     28 C21          2.1550     3.9350     0.7280 ca         1 C6R      -0.110500
     29 C20          1.6060     4.1350    -0.5490 ca         1 C6R      -0.108000
     30 C19          1.8410     3.1950    -1.5640 ca         1 C6R      -0.110500
     31 C18          2.6210     2.0560    -1.3030 ca         1 C6R      -0.103000
     32 H1          -0.7040    -1.6210    -3.0500 ha         1 C6R       0.150000
     33 H2           1.6520    -2.1430    -3.5160 ha         1 C6R       0.134000
     34 H3           0.3720    -0.1980     0.8710 ha         1 C6R       0.118000
     35 H4           4.4530     0.2940    -0.7350 hc         1 C6R       0.084700
     36 H5           5.2180    -3.8550     1.6120 hn         1 C6R       0.468500
     37 H6           6.6940    -3.0250     1.8410 hn         1 C6R       0.468500
     38 H7          -1.7510    -0.1350     0.2490 hn         1 C6R       0.179000
     39 H8           5.8050     1.7000     0.7790 h1         1 C6R       0.077700
     40 H9           4.9110     1.0660     2.1750 h1         1 C6R       0.077700
     41 H10         -4.9200     1.2070     2.3290 h4         1 C6R       0.050100
     42 H11         -5.4750    -0.5170    -2.2030 h4         1 C6R       0.059100
     43 H12          1.8940    -1.1940     2.4660 hc         1 C6R       0.045033
     44 H13          3.3460    -0.3200     2.9280 hc         1 C6R       0.045033
     45 H14          1.9990     0.5500     2.2030 hc         1 C6R       0.045033
     46 H15         -9.4660     1.5660     1.5130 h2         1 C6R       0.070700
     47 H16         -8.8730     1.2050    -0.1140 h2         1 C6R       0.070700
     48 H17          3.3410     2.6620     1.9900 ha         1 C6R       0.113500
     49 H18          1.9740     4.6630     1.5160 ha         1 C6R       0.114000
     50 H19          1.0020     5.0170    -0.7510 ha         1 C6R       0.113000
     51 H20          1.4180     3.3480    -2.5550 ha         1 C6R       0.114000
     52 H21          2.7930     1.3390    -2.1020 ha         1 C6R       0.113500
     53 N1           5.8420    -3.1190     1.3070 nv         1 C6R      -1.003200
     54 N2          -1.6580    -0.5220    -0.6830 ns         1 C6R      -0.124000
@<TRIPOS>BOND
     1     1     2 ar  
     2     1    22 ar  
     3     1    32 1   
     4     2     3 ar  
     5     2    33 1   
     6     3     4 ar  
     7     3    23 1   
     8     4     5 ar  
     9     4     6 1   
    10     5    22 ar  
    11     5    34 1   
    12     6     7 1   
    13     6    17 1   
    14     6    24 1   
    15     7     9 1   
    16     7    26 1   
    17     7    35 1   
    18     8    15 1   
    19     8    19 1   
    20     9    25 1   
    21     9    39 1   
    22     9    40 1   
    23    10    13 ar  
    24    10    14 ar  
    25    11    24 2   
    26    11    25 1   
    27    11    53 1   
    28    12    13 1   
    29    12    21 2   
    30    12    54 1   
    31    13    16 ar  
    32    14    15 ar  
    33    14    41 1   
    34    15    20 ar  
    35    16    20 ar  
    36    16    42 1   
    37    17    43 1   
    38    17    44 1   
    39    17    45 1   
    40    18    19 1   
    41    19    46 1   
    42    19    47 1   
    43    22    54 1   
    44    26    27 ar  
    45    26    31 ar  
    46    27    28 ar  
    47    27    48 1   
    48    28    29 ar  
    49    28    49 1   
    50    29    30 ar  
    51    29    50 1   
    52    30    31 ar  
    53    30    51 1   
    54    31    52 1   
    55    36    53 1   
    56    37    53 1   
    57    38    54 1   
@<TRIPOS>SUBSTRUCTURE
     1 C6R         1 TEMP              0 ****  ****    0 ROOT
