@<TRIPOS>MOLECULE
C6T
   45    46     1     0     0
SMALL
abcg2


@<TRIPOS>ATOM
      1 O4          -7.9600     1.6900     0.1890 o          1 C6T      -0.644000
      2 C4          -6.9290     1.0630     0.3540 c          1 C6T       0.574200
      3 C5          -6.4270     0.6040     1.6330 cc         1 C6T      -0.350400
      4 C7          -7.2140     0.8970     2.8680 c3         1 C6T       0.021100
      5 C6          -5.2590    -0.0620     1.6490 cd         1 C6T      -0.085400
      6 N3          -6.1380     0.7130    -0.7240 ns         1 C6T      -0.475500
      7 C2          -4.9570     0.0170    -0.7180 c          1 C6T       0.614000
      8 O2          -4.3680    -0.2490    -1.7450 o          1 C6T      -0.566000
      9 N1          -4.5270    -0.3660     0.5310 n          1 C6T      -0.289000
     10 C1          -3.2700    -1.1010     0.6780 c5         1 C6T       0.349700
     11 C10         -3.1830    -2.4170    -0.1020 c5         1 C6T      -0.156400
     12 C3          -2.0600    -2.1940    -1.1140 c5         1 C6T       0.124300
     13 O3          -1.1880    -3.2820    -1.2830 oh         1 C6T      -0.670000
     14 O6          -2.2090    -0.2880     0.2710 os         1 C6T      -0.408000
     15 C8          -1.2810    -1.0250    -0.5080 c5         1 C6T       0.151300
     16 C9          -0.6580    -0.1490    -1.5670 c3         1 C6T       0.246600
     17 O5           0.1640     0.8380    -0.9900 os         1 C6T      -0.564400
     18 PA           1.5940     1.2040    -1.7740 p5         1 C6T       1.390700
     19 O1A          2.2120     2.2410    -0.8830 o          1 C6T      -0.863000
     20 O2A          1.2470     1.5160    -3.2050 o          1 C6T      -0.863000
     21 N3A          2.4530    -0.2360    -1.7270 n7         1 C6T      -1.013600
     22 PB           3.7570    -0.7690    -0.7020 p5         1 C6T       1.464300
     23 O1B          4.9500     0.0990    -1.0320 o          1 C6T      -0.880500
     24 O2B          3.8490    -2.2510    -0.9920 o          1 C6T      -0.880500
     25 C3B          3.1660    -0.4390     0.9750 c3         1 C6T      -0.692400
     26 PG           4.4720    -0.5640     2.3190 p5         1 C6T       1.302500
     27 O2G          5.3600    -1.7560     1.9470 o          1 C6T      -0.889833
     28 O1G          5.2110     0.7800     2.3440 o          1 C6T      -0.889833
     29 O3G          3.6580    -0.8110     3.6030 o          1 C6T      -0.889833
     30 H1          -8.2220     0.4850     2.8050 hc         1 C6T       0.011033
     31 H2          -6.7310     0.4690     3.7450 hc         1 C6T       0.011033
     32 H3          -7.3120     1.9710     3.0310 hc         1 C6T       0.011033
     33 H4          -4.8430    -0.4240     2.5790 h4         1 C6T       0.186000
     34 H5          -6.4690     0.9920    -1.6390 hn         1 C6T       0.309500
     35 H6          -3.2000    -1.3040     1.7500 h2         1 C6T       0.048700
     36 H7          -2.9020    -3.2140     0.5870 hc         1 C6T       0.040200
     37 H8          -4.1320    -2.6980    -0.5530 hc         1 C6T       0.040200
     38 H9          -2.4810    -1.8850    -2.0750 h1         1 C6T       0.051700
     39 H10         -1.6410    -3.9460    -1.8120 ho         1 C6T       0.466000
     40 H11         -0.4860    -1.4270     0.1380 h1         1 C6T       0.110700
     41 H12         -0.1090    -0.8220    -2.2360 h1         1 C6T       0.011700
     42 H13         -1.4590     0.3090    -2.1600 h1         1 C6T       0.011700
     43 H15          2.2920    -0.8550    -2.5080 hn         1 C6T       0.415000
     44 H17          2.7290     0.5610     0.9960 hc         1 C6T       0.053200
     45 H18          2.3510    -1.1470     1.1580 hc         1 C6T       0.053200
@<TRIPOS>BOND
     1     1     2 2   
     2     2     3 1   
     3     2     6 1   
     4     3     4 1   
     5     3     5 2   
     6     4    30 1   
     7     4    31 1   
     8     4    32 1   
     9     5     9 1   
    10     5    33 1   
    11     6     7 1   
    12     6    34 1   
    13     7     8 2   
    14     7     9 1   
    15     9    10 1   
    16    10    11 1   
    17    10    14 1   
    18    10    35 1   
    19    11    12 1   
    20    11    36 1   
    21    11    37 1   
    22    12    13 1   
    23    12    15 1   
    24    12    38 1   
    25    13    39 1   
    26    14    15 1   
    27    15    16 1   
    28    15    40 1   
    29    16    17 1   
    30    16    41 1   
    31    16    42 1   
    32    17    18 1   
    33    18    19 1   
    34    18    20 1   
    35    18    21 1   
    36    21    22 1   
    37    21    43 1   
    38    22    23 1   
    39    22    24 1   
    40    22    25 1   
    41    25    26 1   
    42    25    44 1   
    43    25    45 1   
    44    26    27 1   
    45    26    28 1   
    46    26    29 1   
@<TRIPOS>SUBSTRUCTURE
     1 C6T         1 TEMP              0 ****  ****    0 ROOT
