@<TRIPOS>MOLECULE
C6T
   45    46     1     0     0
SMALL
No Charge or Current Charge


@<TRIPOS>ATOM
      1 O4          -8.3420     1.0030     0.4990 o          1 C6T      -0.644000
      2 C4          -7.1650     0.6840     0.5440 c          1 C6T       0.574200
      3 C5          -6.4180     0.3690     1.7810 cc         1 C6T      -0.350400
      4 C7          -7.2010     0.4570     3.0690 c3         1 C6T       0.021100
      5 C6          -5.0850     0.0230     1.7130 cd         1 C6T      -0.085400
      6 N3          -6.4270     0.5850    -0.5900 ns         1 C6T      -0.475500
      7 C2          -5.1170     0.2440    -0.7220 c          1 C6T       0.614000
      8 O2          -4.6280     0.1710    -1.8380 o          1 C6T      -0.566000
      9 N1          -4.4280    -0.0330     0.4840 n          1 C6T      -0.289000
     10 C1          -2.9730    -0.3530     0.4780 c5         1 C6T       0.349700
     11 C10         -2.8080    -1.8630     0.1110 c5         1 C6T      -0.156400
     12 C3          -1.9900    -1.7960    -1.2080 c5         1 C6T       0.124300
     13 O3          -1.1630    -2.9480    -1.3790 oh         1 C6T      -0.670000
     14 O6          -2.2150     0.4010    -0.4850 os         1 C6T      -0.408000
     15 C8          -1.1860    -0.4840    -0.9770 c5         1 C6T       0.151300
     16 C9          -0.5260     0.0940    -2.2610 c3         1 C6T       0.246600
     17 O5           0.4120     1.1300    -1.9190 os         1 C6T      -0.564400
     18 PA           2.0020     0.8700    -1.9100 p5         1 C6T       1.390700
     19 O1A          2.7150     2.1190    -1.5260 o          1 C6T      -0.863000
     20 O2A          2.4440     0.2790    -3.1990 o          1 C6T      -0.863000
     21 N3A          2.0320    -0.2090    -0.7450 n7         1 C6T      -1.013600
     22 PB           3.4000    -0.9540    -0.5010 p5         1 C6T       1.464300
     23 O1B          4.6430    -0.1890    -0.7890 o          1 C6T      -0.880500
     24 O2B          3.1700    -2.1280    -1.3780 o          1 C6T      -0.880500
     25 C3B          3.1130    -1.5120     1.1590 c3         1 C6T      -0.692400
     26 PG           3.9710    -0.4260     2.2570 p5         1 C6T       1.302500
     27 O2G          5.4330    -0.6880     2.1550 o          1 C6T      -0.889833
     28 O1G          3.6300     1.0020     2.0170 o          1 C6T      -0.889833
     29 O3G          3.5100    -0.8290     3.6160 o          1 C6T      -0.889833
     30 H1          -8.0480    -0.2400     3.0630 hc         1 C6T       0.011033
     31 H2          -6.5720     0.2070     3.9320 hc         1 C6T       0.011033
     32 H3          -7.5910     1.4700     3.2240 hc         1 C6T       0.011033
     33 H4          -4.4660    -0.2200     2.5740 h4         1 C6T       0.186000
     34 H5          -6.9150     0.7840    -1.4480 hn         1 C6T       0.309500
     35 H6          -2.5880    -0.1580     1.4860 h2         1 C6T       0.048700
     36 H7          -2.2590    -2.3830     0.9050 hc         1 C6T       0.040200
     37 H8          -3.7600    -2.3910    -0.0200 hc         1 C6T       0.040200
     38 H9          -2.6600    -1.6750    -2.0710 h1         1 C6T       0.051700
     39 H10         -1.7610    -3.7280    -1.4190 ho         1 C6T       0.466000
     40 H11         -0.4300    -0.6280    -0.1960 h1         1 C6T       0.110700
     41 H12         -0.0220    -0.7220    -2.7950 h1         1 C6T       0.011700
     42 H13         -1.3070     0.4890    -2.9240 h1         1 C6T       0.011700
     43 H15          1.8590    -1.0090    -1.3390 hn         1 C6T       0.415000
     44 H17          2.0490    -1.5290     1.4010 hc         1 C6T       0.053200
     45 H18          3.5210    -2.5190     1.2680 hc         1 C6T       0.053200
@<TRIPOS>BOND
     1     1     2 2   
     2     2     3 1   
     3     2     6 1   
     4     3     4 1   
     5     3     5 2   
     6     4    30 1   
     7     4    31 1   
     8     4    32 1   
     9     5     9 1   
    10     5    33 1   
    11     6     7 1   
    12     6    34 1   
    13     7     8 2   
    14     7     9 1   
    15     9    10 1   
    16    10    11 1   
    17    10    14 1   
    18    10    35 1   
    19    11    12 1   
    20    11    36 1   
    21    11    37 1   
    22    12    13 1   
    23    12    15 1   
    24    12    38 1   
    25    13    39 1   
    26    14    15 1   
    27    15    16 1   
    28    15    40 1   
    29    16    17 1   
    30    16    41 1   
    31    16    42 1   
    32    17    18 1   
    33    18    19 1   
    34    18    20 1   
    35    18    21 1   
    36    21    22 1   
    37    21    43 1   
    38    22    23 1   
    39    22    24 1   
    40    22    25 1   
    41    25    26 1   
    42    25    44 1   
    43    25    45 1   
    44    26    27 1   
    45    26    28 1   
    46    26    29 1   
@<TRIPOS>SUBSTRUCTURE
     1 C6T         1 TEMP              0 ****  ****    0 ROOT
