@<TRIPOS>MOLECULE
C6U
   41    43     1     0     0
SMALL
No Charge or Current Charge


@<TRIPOS>ATOM
      1 C1          -0.3050     2.9650     0.0760 ca         1 C6U      -0.108000
      2 C2          -1.6330     3.4110     0.0180 ca         1 C6U      -0.131000
      3 C3          -2.6860     2.5040    -0.1680 ca         1 C6U       0.140000
      4 C4          -2.4370     1.1130    -0.3120 ca         1 C6U      -0.074300
      5 C5          -1.0840     0.6840    -0.2300 ca         1 C6U      -0.115000
      6 C6          -3.6010     0.0810    -0.5090 c6         1 C6U       0.234500
      7 C7          -4.4960     0.5080    -1.7190 c3         1 C6U      -0.098100
      8 C8          -3.5760    -2.3580    -0.6280 c2         1 C6U       0.700100
      9 N3           3.4410    -0.7030     0.0300 nb         1 C6U      -0.673000
     10 C9          -5.5820    -0.9950     0.7510 c6         1 C6U       0.069600
     11 C10         -4.4240     0.0110     0.8140 c6         1 C6U      -0.105400
     12 C11          2.5500     1.6330     0.1840 c          1 C6U       0.515600
     13 C12          3.7090     0.6310     0.1850 ca         1 C6U       0.285500
     14 C13          4.4800    -1.5780     0.0340 ca         1 C6U       0.351900
     15 C14          5.8210    -1.1790     0.1900 ca         1 C6U       0.074000
     16 C15          6.1060     0.1850     0.3490 ca         1 C6U      -0.075000
     17 F           -3.9410     3.0050    -0.1840 f          1 C6U      -0.188000
     18 S           -4.9590    -2.6860     0.4280 ss         1 C6U      -0.404200
     19 N           -3.0520    -1.2360    -0.9250 n2         1 C6U      -0.706900
     20 C           -0.0210     1.5910    -0.0430 ca         1 C6U      -0.038000
     21 O            2.7260     2.8430     0.3190 o          1 C6U      -0.584100
     22 C16          5.0350     1.0970     0.3470 ca         1 C6U      -0.093000
     23 Cl           7.1250    -2.3660     0.1860 cl         1 C6U      -0.169000
     24 H1           0.4800     3.7010     0.2220 ha         1 C6U       0.151000
     25 H2          -1.8520     4.4710     0.1240 ha         1 C6U       0.133000
     26 H3          -0.8360    -0.3710    -0.3070 ha         1 C6U       0.141000
     27 H4          -3.8810     0.7840    -2.5840 hc         1 C6U       0.050033
     28 H5          -5.1590    -0.3030    -2.0440 hc         1 C6U       0.050033
     29 H6          -5.1440     1.3590    -1.4870 hc         1 C6U       0.050033
     30 H7          -3.2270    -4.2800    -0.3810 hn         1 C6U       0.468500
     31 H8          -2.0510    -3.4180    -1.2730 hn         1 C6U       0.468500
     32 H9           1.3350     0.0440    -0.0810 hn         1 C6U       0.183000
     33 H10         -6.1380    -1.0040     1.7000 h1         1 C6U       0.076700
     34 H11         -6.2860    -0.7230    -0.0470 h1         1 C6U       0.076700
     35 H12         -3.7560    -0.2570     1.6450 hc         1 C6U       0.069200
     36 H13         -4.8330     0.9970     1.0640 hc         1 C6U       0.069200
     37 H14          4.2270    -2.6300    -0.0920 h4         1 C6U       0.039100
     38 H15          7.1310     0.5270     0.4720 ha         1 C6U       0.141000
     39 H16          5.2310     2.1600     0.4690 ha         1 C6U       0.155000
     40 N1          -3.0240    -3.5200    -1.0170 nv         1 C6U      -1.006200
     41 N2           1.2960     1.0520     0.0170 ns         1 C6U      -0.124000
@<TRIPOS>BOND
     1     1     2 ar  
     2     1    20 ar  
     3     1    24 1   
     4     2     3 ar  
     5     2    25 1   
     6     3     4 ar  
     7     3    17 1   
     8     4     5 ar  
     9     4     6 1   
    10     5    20 ar  
    11     5    26 1   
    12     6     7 1   
    13     6    11 1   
    14     6    19 1   
    15     7    27 1   
    16     7    28 1   
    17     7    29 1   
    18     8    18 1   
    19     8    19 2   
    20     8    40 1   
    21     9    13 ar  
    22     9    14 ar  
    23    10    11 1   
    24    10    18 1   
    25    10    33 1   
    26    10    34 1   
    27    11    35 1   
    28    11    36 1   
    29    12    13 1   
    30    12    21 2   
    31    12    41 1   
    32    13    22 ar  
    33    14    15 ar  
    34    14    37 1   
    35    15    16 ar  
    36    15    23 1   
    37    16    22 ar  
    38    16    38 1   
    39    20    41 1   
    40    22    39 1   
    41    30    40 1   
    42    31    40 1   
    43    32    41 1   
@<TRIPOS>SUBSTRUCTURE
     1 C6U         1 TEMP              0 ****  ****    0 ROOT
