@<TRIPOS>MOLECULE
C6U
   41    43     1     0     0
SMALL
abcg2


@<TRIPOS>ATOM
      1 C1          -0.2770     2.9260     0.1190 ca         1 C6U      -0.108000
      2 C2          -1.5940     3.3550     0.0760 ca         1 C6U      -0.131000
      3 C3          -2.6160     2.4520    -0.1220 ca         1 C6U       0.140000
      4 C4          -2.3910     1.0890    -0.2920 ca         1 C6U      -0.074300
      5 C5          -1.0650     0.6820    -0.2450 ca         1 C6U      -0.115000
      6 C6          -3.5170     0.0700    -0.4930 c6         1 C6U       0.234500
      7 C7          -4.3500     0.4280    -1.7350 c3         1 C6U      -0.098100
      8 C8          -3.4910    -2.3100    -0.5150 c2         1 C6U       0.700100
      9 N3           3.3480    -0.6360    -0.0460 nb         1 C6U      -0.673000
     10 C9          -5.5660    -0.8860     0.6880 c6         1 C6U       0.069600
     11 C10         -4.3730     0.0410     0.7850 c6         1 C6U      -0.105400
     12 C11          2.4630     1.6060     0.1890 c          1 C6U       0.515600
     13 C12          3.6180     0.6460     0.1690 ca         1 C6U       0.285500
     14 C13          4.3350    -1.5110    -0.0710 ca         1 C6U       0.351900
     15 C14          5.6570    -1.1250     0.1230 ca         1 C6U       0.074000
     16 C15          5.9540     0.2080     0.3490 ca         1 C6U      -0.075000
     17 F           -3.8730     2.9420    -0.1400 f          1 C6U      -0.188000
     18 S           -5.1030    -2.5690     0.1840 ss         1 C6U      -0.404200
     19 N           -2.8990    -1.2140    -0.7370 n2         1 C6U      -0.706900
     20 C           -0.0070     1.5690    -0.0410 ca         1 C6U      -0.038000
     21 O            2.6410     2.7980     0.3730 o          1 C6U      -0.584100
     22 C16          4.9080     1.1150     0.3720 ca         1 C6U      -0.093000
     23 CL           6.9030    -2.3100     0.0810 cl         1 C6U      -0.169000
     24 H1           0.5080     3.6470     0.2750 ha         1 C6U       0.151000
     25 H2          -1.8250     4.4050     0.2000 ha         1 C6U       0.133000
     26 H3          -0.8630    -0.3720    -0.3800 ha         1 C6U       0.141000
     27 H4          -3.7040     0.5010    -2.6100 hc         1 C6U       0.050033
     28 H5          -5.0830    -0.3540    -1.9330 hc         1 C6U       0.050033
     29 H6          -4.8890     1.3670    -1.6270 hc         1 C6U       0.050033
     30 H7          -3.1590    -4.3160    -0.3320 hn         1 C6U       0.468500
     31 H8          -1.9490    -3.4450    -1.1170 hn         1 C6U       0.468500
     32 H9           1.3250     0.0060    -0.1460 hn         1 C6U       0.183000
     33 H10         -6.0480    -0.9820     1.6590 h1         1 C6U       0.076700
     34 H11         -6.3090    -0.5090    -0.0130 h1         1 C6U       0.076700
     35 H12         -3.7380    -0.2560     1.6240 hc         1 C6U       0.069200
     36 H13         -4.7590     1.0340     1.0120 hc         1 C6U       0.069200
     37 H14          4.0800    -2.5490    -0.2490 h4         1 C6U       0.039100
     38 H15          6.9730     0.5330     0.5050 ha         1 C6U       0.141000
     39 H16          5.0970     2.1650     0.5450 ha         1 C6U       0.155000
     40 N1          -2.9280    -3.5010    -0.8790 nv         1 C6U      -1.006200
     41 N2           1.2730     1.0090    -0.0110 ns         1 C6U      -0.124000
@<TRIPOS>BOND
     1     1     2 ar  
     2     1    20 ar  
     3     1    24 1   
     4     2     3 ar  
     5     2    25 1   
     6     3     4 ar  
     7     3    17 1   
     8     4     5 ar  
     9     4     6 1   
    10     5    20 ar  
    11     5    26 1   
    12     6     7 1   
    13     6    11 1   
    14     6    19 1   
    15     7    27 1   
    16     7    28 1   
    17     7    29 1   
    18     8    18 1   
    19     8    19 2   
    20     8    40 1   
    21     9    13 ar  
    22     9    14 ar  
    23    10    11 1   
    24    10    18 1   
    25    10    33 1   
    26    10    34 1   
    27    11    35 1   
    28    11    36 1   
    29    12    13 1   
    30    12    21 2   
    31    12    41 1   
    32    13    22 ar  
    33    14    15 ar  
    34    14    37 1   
    35    15    16 ar  
    36    15    23 1   
    37    16    22 ar  
    38    16    38 1   
    39    20    41 1   
    40    22    39 1   
    41    30    40 1   
    42    31    40 1   
    43    32    41 1   
@<TRIPOS>SUBSTRUCTURE
     1 C6U         1 TEMP              0 ****  ****    0 ROOT
