@<TRIPOS>MOLECULE
C6V
   49    52     1     0     0
SMALL
No Charge or Current Charge


@<TRIPOS>ATOM
      1 C1           4.6620    -0.0580     0.2830 ce         1 C6V      -0.240200
      2 C2          -3.0720    -4.3680     0.8630 ca         1 C6V      -0.152000
      3 C3          -4.0770    -4.1280    -0.0970 ca         1 C6V       0.156100
      4 C13         -1.5240     1.6070     0.5610 ca         1 C6V       0.019200
      5 C14          0.5770    -0.6620     1.5410 ca         1 C6V       0.078100
      6 C15          1.4380     0.1560     2.2870 ca         1 C6V      -0.150000
      7 C16          2.7660     0.3460     1.8690 ca         1 C6V      -0.098500
      8 C17          3.2480    -0.2840     0.7040 ca         1 C6V      -0.016800
      9 C18          2.3790    -1.1150    -0.0340 ca         1 C6V      -0.098500
     10 C19          1.0500    -1.3050     0.3840 ca         1 C6V      -0.150000
     11 C20          5.3260    -0.5280    -0.8190 cf         1 C6V      -0.212200
     12 C21          6.7540    -0.2450    -1.1590 c          1 C6V       0.695200
     13 C24         -0.7800     2.2710    -0.4600 ca         1 C6V      -0.108300
     14 C25         -0.2020     3.5310    -0.1480 ca         1 C6V      -0.133000
     15 C26         -0.3400     4.0960     1.1270 ca         1 C6V       0.166000
     16 C27         -1.0600     3.4320     2.1230 ca         1 C6V      -0.138000
     17 C28         -1.6500     2.1940     1.8380 ca         1 C6V      -0.062000
     18 C30         -0.6110     1.6550    -1.8730 c3         1 C6V       0.236300
     19 C4          -4.2690    -2.8350    -0.6220 ca         1 C6V      -0.198000
     20 C5          -3.4420    -1.7930    -0.1730 ca         1 C6V      -0.116000
     21 C6          -2.4590    -2.0380     0.7700 ca         1 C6V      -0.129800
     22 C7          -2.2470    -3.3160     1.3080 ca         1 C6V      -0.009000
     23 S8          -3.5300    -0.0780    -0.7170 ss         1 C6V       0.093400
     24 C9          -2.1600     0.3040     0.3600 cc         1 C6V      -0.044600
     25 C10         -1.7570    -0.8140     1.0540 cd         1 C6V       0.156900
     26 O22          7.4130     0.4620    -0.4110 o          1 C6V      -0.722500
     27 O23          7.1980    -0.7410    -2.1820 o          1 C6V      -0.722500
     28 F29          0.2250     5.2930     1.3950 f          1 C6V      -0.181000
     29 F31         -1.7500     1.8070    -2.5850 f          1 C6V      -0.115000
     30 C32          0.5380     2.2580    -2.7110 c3         1 C6V      -0.145100
     31 F33         -0.3760     0.3250    -1.8140 f          1 C6V      -0.115000
     32 H1           5.2250     0.5790     0.9690 ha         1 C6V       0.190000
     33 H2          -2.9320    -5.3700     1.2610 ha         1 C6V       0.131000
     34 H3           1.0720     0.6540     3.1820 ha         1 C6V       0.115500
     35 H4           3.4210     0.9900     2.4530 ha         1 C6V       0.118000
     36 H5           2.7220    -1.6170    -0.9340 ha         1 C6V       0.118000
     37 H6           0.3910    -1.9470    -0.1960 ha         1 C6V       0.115500
     38 H7           4.8040    -1.1630    -1.5300 ha         1 C6V       0.143000
     39 H8           0.3630     4.0940    -0.8840 ha         1 C6V       0.132000
     40 H9          -1.1630     3.8760     3.1100 ha         1 C6V       0.133000
     41 H10         -2.2120     1.6790     2.6140 ha         1 C6V       0.132000
     42 H11         -5.0410    -2.6390    -1.3630 ha         1 C6V       0.117000
     43 H12         -1.4680    -3.4900     2.0480 ha         1 C6V       0.138000
     44 H13         -5.4990    -4.8050    -1.1780 ho         1 C6V       0.462000
     45 H15          1.4830     2.2220    -2.1560 hc         1 C6V       0.064367
     46 H16          0.6700     1.6920    -3.6410 hc         1 C6V       0.064367
     47 H17          0.3260     3.2970    -2.9880 hc         1 C6V       0.064367
     48 O12         -0.7260    -0.8090     1.9530 os         1 C6V      -0.246200
     49 O11         -4.8650    -5.1560    -0.5170 oh         1 C6V      -0.534100
@<TRIPOS>BOND
     1     1     8 1   
     2     1    11 2   
     3     1    32 1   
     4     2     3 ar  
     5     2    22 ar  
     6     2    33 1   
     7     3    19 ar  
     8     3    49 1   
     9     4    13 ar  
    10     4    17 ar  
    11     4    24 1   
    12     5     6 ar  
    13     5    10 ar  
    14     5    48 1   
    15     6     7 ar  
    16     6    34 1   
    17     7     8 ar  
    18     7    35 1   
    19     8     9 ar  
    20     9    10 ar  
    21     9    36 1   
    22    10    37 1   
    23    11    12 1   
    24    11    38 1   
    25    12    26 1   
    26    12    27 1   
    27    13    14 ar  
    28    13    18 1   
    29    14    15 ar  
    30    14    39 1   
    31    15    16 ar  
    32    15    28 1   
    33    16    17 ar  
    34    16    40 1   
    35    17    41 1   
    36    18    29 1   
    37    18    30 1   
    38    18    31 1   
    39    19    20 ar  
    40    19    42 1   
    41    20    21 ar  
    42    20    23 1   
    43    21    22 ar  
    44    21    25 1   
    45    22    43 1   
    46    23    24 1   
    47    24    25 2   
    48    25    48 1   
    49    30    45 1   
    50    30    46 1   
    51    30    47 1   
    52    44    49 1   
@<TRIPOS>SUBSTRUCTURE
     1 C6V         1 TEMP              0 ****  ****    0 ROOT
