@<TRIPOS>MOLECULE
C6V
   49    52     1     0     0
SMALL
bcc


@<TRIPOS>ATOM
      1 C1           4.9560    -1.4530     0.6460 ce         1 C6V      -0.190200
      2 C2          -2.0660    -4.1050     0.9070 ca         1 C6V      -0.170000
      3 C3          -3.1620    -4.0860     0.0250 ca         1 C6V       0.156100
      4 C13         -1.8560     2.0240     0.4040 ca         1 C6V       0.019200
      5 C14          0.8930    -0.4520     1.4750 ca         1 C6V       0.078100
      6 C15          1.8340    -0.4860     2.4950 ca         1 C6V      -0.168000
      7 C16          3.1470    -0.8130     2.2000 ca         1 C6V      -0.116500
      8 C17          3.5550    -1.1120     0.8970 ca         1 C6V      -0.016800
      9 C18          2.5850    -1.0690    -0.1070 ca         1 C6V      -0.116500
     10 C19          1.2690    -0.7420     0.1680 ca         1 C6V      -0.168000
     11 C20          5.5300    -1.6790    -0.5380 cf         1 C6V      -0.162200
     12 C21          6.9900    -2.0360    -0.6920 c          1 C6V       0.905800
     13 C24         -1.4930     2.8680    -0.6590 ca         1 C6V      -0.108300
     14 C25         -1.3110     4.2250    -0.4230 ca         1 C6V      -0.151000
     15 C26         -1.4730     4.7310     0.8500 ca         1 C6V       0.130900
     16 C27         -1.8190     3.9300     1.9150 ca         1 C6V      -0.156000
     17 C28         -2.0100     2.5800     1.6740 ca         1 C6V      -0.080000
     18 C30         -1.3260     2.3490    -2.0690 c3         1 C6V       0.478900
     19 C4          -3.6220    -2.8900    -0.5030 ca         1 C6V      -0.216000
     20 C5          -2.9710    -1.7170    -0.1330 ca         1 C6V       0.010900
     21 C6          -1.8780    -1.7190     0.7410 ca         1 C6V      -0.129800
     22 C7          -1.4310    -2.9380     1.2630 ca         1 C6V      -0.027000
     23 S8          -3.3700    -0.1140    -0.6500 ss         1 C6V      -0.033500
     24 C9          -2.0710     0.5740     0.2900 cc         1 C6V      -0.044600
     25 C10         -1.3970    -0.3870     0.9670 cd         1 C6V       0.156900
     26 O22          7.6780    -2.1440     0.3430 o          1 C6V      -0.827800
     27 O23          7.3820    -2.1950    -1.8680 o          1 C6V      -0.827800
     28 F29         -1.2890     6.0430     1.0470 f          1 C6V      -0.145900
     29 F31         -2.5770     2.0600    -2.5590 f          1 C6V      -0.236300
     30 C32         -0.6110     3.2390    -3.0520 c3         1 C6V      -0.145100
     31 F33         -0.6700     1.1490    -2.0250 f          1 C6V      -0.236300
     32 H1           5.5830    -1.5230     1.5300 ha         1 C6V       0.140000
     33 H2          -1.7300    -5.0530     1.3080 ha         1 C6V       0.149000
     34 H3           1.5390    -0.2630     3.5120 ha         1 C6V       0.133500
     35 H4           3.8720    -0.8390     3.0040 ha         1 C6V       0.136000
     36 H5           2.8530    -1.2950    -1.1310 ha         1 C6V       0.136000
     37 H6           0.5480    -0.7120    -0.6380 ha         1 C6V       0.133500
     38 H7           4.9510    -1.6080    -1.4540 ha         1 C6V       0.093000
     39 H8          -1.0330     4.9020    -1.2190 ha         1 C6V       0.150000
     40 H9          -1.9460     4.3420     2.9080 ha         1 C6V       0.151000
     41 H10         -2.3010     1.9420     2.4980 ha         1 C6V       0.150000
     42 H11         -4.4660    -2.8670    -1.1820 ha         1 C6V       0.135000
     43 H12         -0.5940    -2.9720     1.9480 ha         1 C6V       0.156000
     44 H13         -4.4630    -5.1560    -0.8790 ho         1 C6V       0.423000
     45 H15          0.3820     3.4990    -2.6880 hc         1 C6V       0.064367
     46 H16         -0.5030     2.7120    -3.9990 hc         1 C6V       0.064367
     47 H17         -1.1640     4.1570    -3.2400 hc         1 C6V       0.064367
     48 O12         -0.3820    -0.1120     1.8290 os         1 C6V      -0.246200
     49 O11         -3.7240    -5.2720    -0.2700 oh         1 C6V      -0.495100
@<TRIPOS>BOND
     1     1     8 1   
     2     1    11 2   
     3     1    32 1   
     4     2     3 ar  
     5     2    22 ar  
     6     2    33 1   
     7     3    19 ar  
     8     3    49 1   
     9     4    13 ar  
    10     4    17 ar  
    11     4    24 1   
    12     5     6 ar  
    13     5    10 ar  
    14     5    48 1   
    15     6     7 ar  
    16     6    34 1   
    17     7     8 ar  
    18     7    35 1   
    19     8     9 ar  
    20     9    10 ar  
    21     9    36 1   
    22    10    37 1   
    23    11    12 1   
    24    11    38 1   
    25    12    26 1   
    26    12    27 1   
    27    13    14 ar  
    28    13    18 1   
    29    14    15 ar  
    30    14    39 1   
    31    15    16 ar  
    32    15    28 1   
    33    16    17 ar  
    34    16    40 1   
    35    17    41 1   
    36    18    29 1   
    37    18    30 1   
    38    18    31 1   
    39    19    20 ar  
    40    19    42 1   
    41    20    21 ar  
    42    20    23 1   
    43    21    22 ar  
    44    21    25 1   
    45    22    43 1   
    46    23    24 1   
    47    24    25 2   
    48    25    48 1   
    49    30    45 1   
    50    30    46 1   
    51    30    47 1   
    52    44    49 1   
@<TRIPOS>SUBSTRUCTURE
     1 C6V         1 TEMP              0 ****  ****    0 ROOT
