@<TRIPOS>MOLECULE
C6W
   44    44     1     0     0
SMALL
abcg2


@<TRIPOS>ATOM
      1 C2          -4.8880     0.1440    -1.1160 c3         1 C6W       0.073900
      2 C3          -2.8190     1.4100    -1.0650 c3         1 C6W       0.073900
      3 C1          -4.9360     2.5460    -0.7700 c3         1 C6W       0.073900
      4 C4          -4.1490     1.1440     1.0240 c3         1 C6W       0.085600
      5 C5          -3.6380    -0.1610     1.5870 c3         1 C6W       0.217600
      6 C10          5.1680    -0.3910    -0.6160 ca         1 C6W      -0.107500
      7 CAI          4.4690     1.7080     0.2970 ca         1 C6W      -0.107500
      8 C13          5.7710     1.9670     0.7050 ca         1 C6W      -0.109500
      9 C6           0.5410    -0.7860    -0.0590 c3         1 C6W       0.232600
     10 C7           1.9670    -0.4810     0.3540 c3         1 C6W      -0.085400
     11 C9           4.1490     0.5270    -0.3690 ca         1 C6W      -0.073300
     12 O3          -1.9990    -2.8010     1.9870 o          1 C6W      -0.809000
     13 P           -1.7010    -1.7940     0.9250 p5         1 C6W       1.379800
     14 O4          -2.1400    -2.0100    -0.4950 o          1 C6W      -0.809000
     15 O1          -2.2490    -0.3090     1.4100 os         1 C6W      -0.593400
     16 N           -4.1850     1.2910    -0.4770 n4         1 C6W      -0.486000
     17 O2          -0.1090    -1.4660     1.0040 os         1 C6W      -0.575400
     18 C8           2.7320     0.2250    -0.7660 c3         1 C6W      -0.034100
     19 C12          6.7770     1.0440     0.4530 ca         1 C6W      -0.115000
     20 C11          6.4720    -0.1380    -0.2110 ca         1 C6W      -0.109500
     21 H11C        -5.9530     2.4510    -0.3990 hx         1 C6W       0.095033
     22 H12C        -4.4400     3.3800    -0.2800 hx         1 C6W       0.095033
     23 H13C        -4.9500     2.7090    -1.8440 hx         1 C6W       0.095033
     24 H21C        -4.2740    -0.7490    -1.0330 hx         1 C6W       0.095033
     25 H22C        -5.8490    -0.0070    -0.6310 hx         1 C6W       0.095033
     26 H23C        -5.0450     0.3760    -2.1670 hx         1 C6W       0.095033
     27 H31C        -2.9240     1.6880    -2.1110 hx         1 C6W       0.095033
     28 H32C        -2.2670     2.1830    -0.5370 hx         1 C6W       0.095033
     29 H33C        -2.3060     0.4590    -0.9960 hx         1 C6W       0.095033
     30 H41C        -5.1770     1.2720     1.3620 hx         1 C6W       0.079200
     31 H42C        -3.5670     1.9840     1.4030 hx         1 C6W       0.079200
     32 H51C        -3.8760    -0.1220     2.6540 h1         1 C6W       0.056200
     33 H52C        -4.2110    -1.0000     1.1810 h1         1 C6W       0.056200
     34 H11          7.2500    -0.8610    -0.4160 ha         1 C6W       0.109500
     35 H12          7.7930     1.2450     0.7680 ha         1 C6W       0.109000
     36 H61C         0.0250     0.1500    -0.3020 h1         1 C6W       0.006700
     37 H62C         0.5360    -1.4010    -0.9640 h1         1 C6W       0.006700
     38 H71C         1.9640     0.1490     1.2470 hc         1 C6W       0.057700
     39 H72C         2.4820    -1.4090     0.6180 hc         1 C6W       0.057700
     40 H81C         2.7280    -0.4050    -1.6610 hc         1 C6W       0.038700
     41 H82C         2.2150     1.1510    -1.0330 hc         1 C6W       0.038700
     42 HAI          3.6900     2.4360     0.4970 ha         1 C6W       0.109500
     43 H13          6.0010     2.8920     1.2190 ha         1 C6W       0.109500
     44 H10          4.9370    -1.3140    -1.1370 ha         1 C6W       0.109500
@<TRIPOS>BOND
     1     1    16 1   
     2     1    24 1   
     3     1    25 1   
     4     1    26 1   
     5     2    16 1   
     6     2    27 1   
     7     2    28 1   
     8     2    29 1   
     9     3    16 1   
    10     3    21 1   
    11     3    22 1   
    12     3    23 1   
    13     4     5 1   
    14     4    16 1   
    15     4    30 1   
    16     4    31 1   
    17     5    15 1   
    18     5    32 1   
    19     5    33 1   
    20     6    11 ar  
    21     6    20 ar  
    22     6    44 1   
    23     7     8 ar  
    24     7    11 ar  
    25     7    42 1   
    26     8    19 ar  
    27     8    43 1   
    28     9    10 1   
    29     9    17 1   
    30     9    36 1   
    31     9    37 1   
    32    10    18 1   
    33    10    38 1   
    34    10    39 1   
    35    11    18 1   
    36    12    13 1   
    37    13    14 1   
    38    13    15 1   
    39    13    17 1   
    40    18    40 1   
    41    18    41 1   
    42    19    20 ar  
    43    19    35 1   
    44    20    34 1   
@<TRIPOS>SUBSTRUCTURE
     1 C6W         1 TEMP              0 ****  ****    0 ROOT
