@<TRIPOS>MOLECULE
C6W
   44    44     1     0     0
SMALL
No Charge or Current Charge


@<TRIPOS>ATOM
      1 C2          -3.0150     2.4450     0.8730 c3         1 C6W       0.073900
      2 C3          -1.1790     1.6010    -0.5920 c3         1 C6W       0.073900
      3 C1          -0.7960     1.8800     1.8620 c3         1 C6W       0.073900
      4 C4          -2.3140     0.0350     1.0830 c3         1 C6W       0.085600
      5 C5          -3.1880    -0.6760     0.0210 c3         1 C6W       0.217600
      6 C10          2.5720     1.4140     0.5770 ca         1 C6W      -0.107500
      7 CAI          2.3220     1.2310    -1.8350 ca         1 C6W      -0.107500
      8 C13          2.4010     2.6290    -1.9490 ca         1 C6W      -0.109500
      9 C6           0.4780    -2.7280     0.0270 c3         1 C6W       0.232600
     10 C7           0.7640    -1.2530    -0.3040 c3         1 C6W      -0.085400
     11 C9           2.4090     0.6150    -0.5720 ca         1 C6W      -0.073300
     12 O3          -3.2330    -3.6430    -0.6100 o          1 C6W      -0.809000
     13 P           -2.0130    -2.8530    -0.9480 p5         1 C6W       1.379800
     14 O4          -1.4200    -3.3050    -2.2400 o          1 C6W      -0.809000
     15 O1          -2.3400    -1.2710    -0.9770 os         1 C6W      -0.593400
     16 N           -1.8250     1.4780     0.7970 n4         1 C6W      -0.486000
     17 O2          -0.9300    -2.9120     0.2500 os         1 C6W      -0.575400
     18 C8           2.2540    -0.8930    -0.4380 c3         1 C6W      -0.034100
     19 C12          2.5650     3.4210    -0.8000 ca         1 C6W      -0.115000
     20 C11          2.6500     2.8130     0.4630 ca         1 C6W      -0.109500
     21 H11C        -1.2550     1.8140     2.8510 hx         1 C6W       0.095033
     22 H12C         0.0610     1.2050     1.8080 hx         1 C6W       0.095033
     23 H13C        -0.4670     2.9040     1.6770 hx         1 C6W       0.095033
     24 H21C        -3.7430     2.1850     0.1020 hx         1 C6W       0.095033
     25 H22C        -3.4800     2.3700     1.8590 hx         1 C6W       0.095033
     26 H23C        -2.6610     3.4650     0.7120 hx         1 C6W       0.095033
     27 H31C        -0.9220     2.6460    -0.7780 hx         1 C6W       0.095033
     28 H32C        -0.2720     0.9990    -0.6290 hx         1 C6W       0.095033
     29 H33C        -1.8830     1.2550    -1.3510 hx         1 C6W       0.095033
     30 H41C        -2.8930     0.0870     2.0070 hx         1 C6W       0.079200
     31 H42C        -1.4460    -0.5920     1.2830 hx         1 C6W       0.079200
     32 H51C        -3.7970    -1.4350     0.5300 h1         1 C6W       0.056200
     33 H52C        -3.8790     0.0460    -0.4330 h1         1 C6W       0.056200
     34 H11          2.7730     3.4250     1.3540 ha         1 C6W       0.109500
     35 H12          2.6240     4.5030    -0.8890 ha         1 C6W       0.109000
     36 H61C         0.8340    -3.3670    -0.7920 h1         1 C6W       0.006700
     37 H62C         1.0330    -3.0060     0.9320 h1         1 C6W       0.006700
     38 H71C         0.2580    -0.9750    -1.2350 hc         1 C6W       0.057700
     39 H72C         0.3500    -0.6430     0.5030 hc         1 C6W       0.057700
     40 H81C         2.8000    -1.2550     0.4420 hc         1 C6W       0.038700
     41 H82C         2.6800    -1.4080    -1.3070 hc         1 C6W       0.038700
     42 HAI          2.1810     0.6250    -2.7280 ha         1 C6W       0.109500
     43 H13          2.3320     3.1000    -2.9280 ha         1 C6W       0.109500
     44 H10          2.6280     0.9520     1.5600 ha         1 C6W       0.109500
@<TRIPOS>BOND
     1     1    16 1   
     2     1    24 1   
     3     1    25 1   
     4     1    26 1   
     5     2    16 1   
     6     2    27 1   
     7     2    28 1   
     8     2    29 1   
     9     3    16 1   
    10     3    21 1   
    11     3    22 1   
    12     3    23 1   
    13     4     5 1   
    14     4    16 1   
    15     4    30 1   
    16     4    31 1   
    17     5    15 1   
    18     5    32 1   
    19     5    33 1   
    20     6    11 ar  
    21     6    20 ar  
    22     6    44 1   
    23     7     8 ar  
    24     7    11 ar  
    25     7    42 1   
    26     8    19 ar  
    27     8    43 1   
    28     9    10 1   
    29     9    17 1   
    30     9    36 1   
    31     9    37 1   
    32    10    18 1   
    33    10    38 1   
    34    10    39 1   
    35    11    18 1   
    36    12    13 1   
    37    13    14 1   
    38    13    15 1   
    39    13    17 1   
    40    18    40 1   
    41    18    41 1   
    42    19    20 ar  
    43    19    35 1   
    44    20    34 1   
@<TRIPOS>SUBSTRUCTURE
     1 C6W         1 TEMP              0 ****  ****    0 ROOT
