@<TRIPOS>MOLECULE
C6X
   47    51     1     0     0
SMALL
No Charge or Current Charge


@<TRIPOS>ATOM
      1 C1          -2.0300    -2.2530     0.8430 ca         1 C6X      -0.086000
      2 C10         -1.4450    -0.1490     2.1480 c3         1 C6X       0.127900
      3 C12          0.9410    -0.5610     1.7340 ca         1 C6X       0.076800
      4 C13          1.4640    -0.5350     0.4440 ca         1 C6X      -0.085800
      5 C14          2.2300    -1.5800    -0.0480 ca         1 C6X      -0.116000
      6 C15          2.6010    -2.6620     0.7610 ca         1 C6X      -0.064000
      7 C16          2.1420    -2.6730     2.0960 ca         1 C6X      -0.093000
      8 C17          1.2970    -1.6410     2.5730 ca         1 C6X      -0.129000
      9 C18          0.1820     1.7020     2.1060 ca         1 C6X       0.477500
     10 C2          -1.8640    -0.8570     0.8640 ca         1 C6X      -0.112300
     11 C20          0.0140     3.7330     3.2510 ca         1 C6X       0.364900
     12 C21          0.3000     4.4710     2.0990 ca         1 C6X      -0.179000
     13 C22          0.5540     3.7900     0.9040 ca         1 C6X      -0.064000
     14 C23          0.5250     2.3810     0.8910 ca         1 C6X      -0.067000
     15 C24          1.2590     0.4260    -0.6150 cc         1 C6X       0.079700
     16 C26          2.4730    -1.3310    -1.4970 c          1 C6X       0.317800
     17 C29          0.8880     1.7400    -0.3990 cd         1 C6X      -0.142000
     18 C3          -2.0290    -0.1190    -0.3250 ca         1 C6X      -0.035000
     19 C4          -2.3430    -0.7610    -1.5430 ca         1 C6X      -0.153600
     20 C5          -2.5090    -2.1670    -1.5450 ca         1 C6X      -0.084000
     21 C6          -2.3560    -2.9030    -0.3570 ca         1 C6X      -0.121000
     22 C7          -2.4770     0.0660    -2.8020 c          1 C6X       0.616700
     23 N11         -0.0520     0.3350     2.0880 na         1 C6X      -0.271300
     24 N19         -0.0590     2.3870     3.2530 nb         1 C6X      -0.730000
     25 N25          1.8200    -0.1150    -1.7690 n          1 C6X      -0.222700
     26 N9          -2.7650    -0.5700    -3.9580 nt         1 C6X      -0.603000
     27 O8          -2.3350     1.2770    -2.8140 o          1 C6X      -0.602100
     28 H1          -1.8930    -2.8360     1.7510 ha         1 C6X       0.112000
     29 H2          -2.1210     0.6970     2.3280 h1         1 C6X       0.062700
     30 H3          -1.5410    -0.8330     3.0010 h1         1 C6X       0.062700
     31 H4           3.2070    -3.4760     0.3670 ha         1 C6X       0.136000
     32 H5           2.4010    -3.5040     2.7480 ha         1 C6X       0.118000
     33 H6           0.8910    -1.7000     3.5800 ha         1 C6X       0.122000
     34 H7          -0.1840     4.2340     4.1980 h4         1 C6X       0.021100
     35 H8           0.3340     5.5560     2.1420 ha         1 C6X       0.128000
     36 H9           0.8000     4.3510     0.0040 ha         1 C6X       0.119000
     37 H10          2.6360     1.2810    -3.1270 h1         1 C6X       0.049367
     38 H11          2.0300    -0.2270    -3.8760 h1         1 C6X       0.049367
     39 H12          0.8750     1.0020    -3.2940 h1         1 C6X       0.049367
     40 H13          0.9130     2.3870    -1.2680 ha         1 C6X       0.119000
     41 H14         -1.8920     0.9600    -0.3020 ha         1 C6X       0.149000
     42 H15         -2.7520    -2.7050    -2.4580 ha         1 C6X       0.110000
     43 H16         -2.4800    -3.9840    -0.3700 ha         1 C6X       0.116000
     44 H17         -2.8870    -1.5700    -3.9710 hn         1 C6X       0.313000
     45 H18         -2.8590    -0.0300    -4.8050 hn         1 C6X       0.313000
     46 O27          3.0990    -2.0320    -2.2770 o          1 C6X      -0.315000
     47 C28          1.8430     0.5230    -3.0970 c3         1 C6X       0.064900
@<TRIPOS>BOND
     1     1    10 ar  
     2     1    21 ar  
     3     1    28 1   
     4     2    10 1   
     5     2    23 1   
     6     2    29 1   
     7     2    30 1   
     8     3     4 ar  
     9     3     8 ar  
    10     3    23 1   
    11     4     5 ar  
    12     4    15 1   
    13     5     6 ar  
    14     5    16 1   
    15     6     7 ar  
    16     6    31 1   
    17     7     8 ar  
    18     7    32 1   
    19     8    33 1   
    20     9    14 ar  
    21     9    23 1   
    22     9    24 ar  
    23    10    18 ar  
    24    11    12 ar  
    25    11    24 ar  
    26    11    34 1   
    27    12    13 ar  
    28    12    35 1   
    29    13    14 ar  
    30    13    36 1   
    31    14    17 1   
    32    15    17 2   
    33    15    25 1   
    34    16    25 1   
    35    16    46 2   
    36    17    40 1   
    37    18    19 ar  
    38    18    41 1   
    39    19    20 ar  
    40    19    22 1   
    41    20    21 ar  
    42    20    42 1   
    43    21    43 1   
    44    22    26 1   
    45    22    27 2   
    46    25    47 1   
    47    26    44 1   
    48    26    45 1   
    49    37    47 1   
    50    38    47 1   
    51    39    47 1   
@<TRIPOS>SUBSTRUCTURE
     1 C6X         1 TEMP              0 ****  ****    0 ROOT
