@<TRIPOS>MOLECULE
C6X
   47    51     1     0     0
SMALL
abcg2


@<TRIPOS>ATOM
      1 C1          -2.7390    -2.1440     1.4800 ca         1 C6X      -0.086000
      2 C10         -1.4490    -0.0430     1.9850 c3         1 C6X       0.127900
      3 C12          0.7520    -0.4540     1.0280 ca         1 C6X       0.076800
      4 C13          1.6230    -0.1800    -0.0160 ca         1 C6X      -0.085800
      5 C14          2.4110    -1.1650    -0.5880 ca         1 C6X      -0.116000
      6 C15          2.4400    -2.4590    -0.1020 ca         1 C6X      -0.064000
      7 C16          1.6350    -2.7250     0.9970 ca         1 C6X      -0.093000
      8 C17          0.8070    -1.7500     1.5500 ca         1 C6X      -0.129000
      9 C18          0.1310     1.8040     1.7610 ca         1 C6X       0.477500
     10 C2          -2.1160    -0.9910     1.0190 ca         1 C6X      -0.112300
     11 C20         -0.1950     3.5040     3.2760 ca         1 C6X       0.364900
     12 C21          0.4630     4.4260     2.4880 ca         1 C6X      -0.179000
     13 C22          0.9820     3.9790     1.2840 ca         1 C6X      -0.064000
     14 C23          0.8410     2.6530     0.8790 ca         1 C6X      -0.067000
     15 C24          1.8270     1.0530    -0.7500 cc         1 C6X       0.079700
     16 C26          3.0650    -0.5770    -1.7770 c          1 C6X       0.317800
     17 C29          1.4500     2.2870    -0.3910 cd         1 C6X      -0.142000
     18 C3          -2.1580    -0.7000    -0.3390 ca         1 C6X      -0.035000
     19 C4          -2.7920    -1.5530    -1.2350 ca         1 C6X      -0.153600
     20 C5          -3.4210    -2.7020    -0.7570 ca         1 C6X      -0.084000
     21 C6          -3.3970    -2.9900     0.5980 ca         1 C6X      -0.121000
     22 C7          -2.7930    -1.1740    -2.6830 c          1 C6X       0.616700
     23 N11         -0.2060     0.4780     1.4420 na         1 C6X      -0.271300
     24 N19         -0.3450     2.2340     2.9160 nb         1 C6X      -0.730000
     25 N25          2.6310     0.7270    -1.8370 n          1 C6X      -0.222700
     26 N9          -2.9850    -2.1730    -3.5580 nt         1 C6X      -0.603000
     27 O8          -2.6280    -0.0120    -3.0300 o          1 C6X      -0.602100
     28 H1          -2.7120    -2.3850     2.5360 ha         1 C6X       0.112000
     29 H2          -2.1100     0.8070     2.1560 h1         1 C6X       0.062700
     30 H3          -1.3250    -0.5200     2.9630 h1         1 C6X       0.062700
     31 H4           3.0480    -3.2280    -0.5580 ha         1 C6X       0.136000
     32 H5           1.6250    -3.7170     1.4290 ha         1 C6X       0.118000
     33 H6           0.1820    -2.0260     2.3870 ha         1 C6X       0.122000
     34 H7          -0.6220     3.7870     4.2310 h4         1 C6X       0.021100
     35 H8           0.5670     5.4560     2.7990 ha         1 C6X       0.128000
     36 H9           1.5030     4.6700     0.6320 ha         1 C6X       0.119000
     37 H10          3.7510     2.4300    -2.3400 h1         1 C6X       0.049367
     38 H11          3.6560     1.1690    -3.5760 h1         1 C6X       0.049367
     39 H12          2.2570     2.2010    -3.2680 h1         1 C6X       0.049367
     40 H13          1.7340     3.1220    -1.0210 ha         1 C6X       0.119000
     41 H14         -1.6750     0.1960    -0.7070 ha         1 C6X       0.149000
     42 H15         -3.9510    -3.3690    -1.4250 ha         1 C6X       0.110000
     43 H16         -3.8880    -3.8800     0.9690 ha         1 C6X       0.116000
     44 H17         -2.9770    -3.1400    -3.2850 hn         1 C6X       0.313000
     45 H18         -2.9710    -1.9780    -4.5450 hn         1 C6X       0.313000
     46 O27          3.8230    -1.1110    -2.5600 o          1 C6X      -0.315000
     47 C28          3.0980     1.6880    -2.8030 c3         1 C6X       0.064900
@<TRIPOS>BOND
     1     1    10 ar  
     2     1    21 ar  
     3     1    28 1   
     4     2    10 1   
     5     2    23 1   
     6     2    29 1   
     7     2    30 1   
     8     3     4 ar  
     9     3     8 ar  
    10     3    23 1   
    11     4     5 ar  
    12     4    15 1   
    13     5     6 ar  
    14     5    16 1   
    15     6     7 ar  
    16     6    31 1   
    17     7     8 ar  
    18     7    32 1   
    19     8    33 1   
    20     9    14 ar  
    21     9    23 1   
    22     9    24 ar  
    23    10    18 ar  
    24    11    12 ar  
    25    11    24 ar  
    26    11    34 1   
    27    12    13 ar  
    28    12    35 1   
    29    13    14 ar  
    30    13    36 1   
    31    14    17 1   
    32    15    17 2   
    33    15    25 1   
    34    16    25 1   
    35    16    46 2   
    36    17    40 1   
    37    18    19 ar  
    38    18    41 1   
    39    19    20 ar  
    40    19    22 1   
    41    20    21 ar  
    42    20    42 1   
    43    21    43 1   
    44    22    26 1   
    45    22    27 2   
    46    25    47 1   
    47    26    44 1   
    48    26    45 1   
    49    37    47 1   
    50    38    47 1   
    51    39    47 1   
@<TRIPOS>SUBSTRUCTURE
     1 C6X         1 TEMP              0 ****  ****    0 ROOT
