@<TRIPOS>MOLECULE
C6Z
   24    25     1     0     0
SMALL
abcg2


@<TRIPOS>ATOM
      1 C2          -3.2850     0.7250     0.0740 ca         1 C6Z       0.128000
      2 C3          -2.8370     1.1800    -1.1550 ca         1 C6Z      -0.100000
      3 C4          -1.7190     0.5880    -1.7190 ca         1 C6Z      -0.074000
      4 C5          -1.0380    -0.4510    -1.0930 ca         1 C6Z      -0.065300
      5 C6          -1.5230    -0.8740     0.1420 ca         1 C6Z       0.132000
      6 C8          -2.6370    -0.3040     0.7370 ca         1 C6Z      -0.098000
      7 C15          3.5160    -1.0470     0.0420 ca         1 C6Z      -0.101000
      8 C16          2.3800    -1.5370    -0.5420 ca         1 C6Z      -0.097000
      9 CL1         -4.6780     1.4480     0.8020 cl         1 C6Z      -0.192000
     10 CL7         -0.7180    -2.1560     0.9840 cl         1 C6Z      -0.203000
     11 C9           0.1800    -1.0610    -1.7240 c3         1 C6Z      -0.072400
     12 C10          1.4510    -0.6210    -1.0480 ca         1 C6Z       0.286300
     13 N11          1.6530     0.6810    -0.9670 nb         1 C6Z      -0.304000
     14 N12          2.7380     1.1630    -0.4050 nb         1 C6Z      -0.335000
     15 C13          3.6480     0.3440     0.0890 ca         1 C6Z       0.411300
     16 S14          5.0780     1.0420     0.8330 sh         1 C6Z      -0.372100
     17 H1          -3.3490     1.9820    -1.6680 ha         1 C6Z       0.135000
     18 H2          -1.3680     0.9390    -2.6810 ha         1 C6Z       0.126000
     19 H3          -2.9880    -0.6550     1.6970 ha         1 C6Z       0.144000
     20 H5           2.1990    -2.6010    -0.6150 ha         1 C6Z       0.135000
     21 H6           0.1190    -2.1510    -1.7090 hc         1 C6Z       0.068200
     22 H7           0.2220    -0.7680    -2.7750 hc         1 C6Z       0.068200
     23 H8           4.7400     2.3200     0.6250 hs         1 C6Z       0.234800
     24 H4           4.2740    -1.7010     0.4520 ha         1 C6Z       0.143000
@<TRIPOS>BOND
     1     1     2 ar  
     2     1     6 ar  
     3     1     9 1   
     4     2     3 ar  
     5     2    17 1   
     6     3     4 ar  
     7     3    18 1   
     8     4     5 ar  
     9     4    11 1   
    10     5     6 ar  
    11     5    10 1   
    12     6    19 1   
    13     7     8 ar  
    14     7    15 ar  
    15     7    24 1   
    16     8    12 ar  
    17     8    20 1   
    18    11    12 1   
    19    11    21 1   
    20    11    22 1   
    21    12    13 ar  
    22    13    14 ar  
    23    14    15 ar  
    24    15    16 1   
    25    16    23 1   
@<TRIPOS>SUBSTRUCTURE
     1 C6Z         1 TEMP              0 ****  ****    0 ROOT
