@<TRIPOS>MOLECULE
C6Z
   24    25     1     0     0
SMALL
No Charge or Current Charge


@<TRIPOS>ATOM
      1 C2          -3.3450     0.6750     0.1050 ca         1 C6Z       0.128000
      2 C3          -2.8290     1.2280    -1.0770 ca         1 C6Z      -0.100000
      3 C4          -1.6880     0.6660    -1.6760 ca         1 C6Z      -0.074000
      4 C5          -1.0560    -0.4550    -1.0980 ca         1 C6Z      -0.065300
      5 C6          -1.5840    -1.0030     0.0950 ca         1 C6Z       0.132000
      6 C8          -2.7240    -0.4380     0.6900 ca         1 C6Z      -0.098000
      7 C15          3.4760    -1.0030     0.2060 ca         1 C6Z      -0.101000
      8 C16          2.3000    -1.5010    -0.3910 ca         1 C6Z      -0.097000
      9 Cl1         -4.7720     1.3800     0.8540 cl         1 C6Z      -0.192000
     10 Cl7         -0.8400    -2.3990     0.8750 cl         1 C6Z      -0.203000
     11 C9           0.1880    -1.0410    -1.7710 c3         1 C6Z      -0.072400
     12 C10          1.4770    -0.5970    -1.0930 ca         1 C6Z       0.286300
     13 N11          1.8100     0.7160    -1.1970 nb         1 C6Z      -0.304000
     14 N12          2.9390     1.1900    -0.6250 nb         1 C6Z      -0.335000
     15 C13          3.7640     0.3660     0.0660 ca         1 C6Z       0.411300
     16 S14          5.2160     1.1040     0.7750 sh         1 C6Z      -0.372100
     17 H1          -3.3110     2.0920    -1.5270 ha         1 C6Z       0.135000
     18 H2          -1.2940     1.1060    -2.5900 ha         1 C6Z       0.126000
     19 H3          -3.1260    -0.8620     1.6060 ha         1 C6Z       0.144000
     20 H5           2.0350    -2.5520    -0.3110 ha         1 C6Z       0.135000
     21 H6           0.1270    -2.1350    -1.7900 hc         1 C6Z       0.068200
     22 H7           0.2200    -0.7440    -2.8260 hc         1 C6Z       0.068200
     23 H8           4.9280     2.3450     0.3150 hs         1 C6Z       0.234800
     24 H4           4.1460    -1.6530     0.7610 ha         1 C6Z       0.143000
@<TRIPOS>BOND
     1     1     2 ar  
     2     1     6 ar  
     3     1     9 1   
     4     2     3 ar  
     5     2    17 1   
     6     3     4 ar  
     7     3    18 1   
     8     4     5 ar  
     9     4    11 1   
    10     5     6 ar  
    11     5    10 1   
    12     6    19 1   
    13     7     8 ar  
    14     7    15 ar  
    15     7    24 1   
    16     8    12 ar  
    17     8    20 1   
    18    11    12 1   
    19    11    21 1   
    20    11    22 1   
    21    12    13 ar  
    22    13    14 ar  
    23    14    15 ar  
    24    15    16 1   
    25    16    23 1   
@<TRIPOS>SUBSTRUCTURE
     1 C6Z         1 TEMP              0 ****  ****    0 ROOT
