@<TRIPOS>MOLECULE
C70
   44    47     1     0     0
SMALL
bcc


@<TRIPOS>ATOM
      1 C01          0.4300     0.4420     0.1440 cc         1 C70      -0.110200
      2 C02          1.5850    -0.2730     0.0430 cd         1 C70      -0.042600
      3 S03          1.2900    -1.9880    -0.0680 ss         1 C70       0.132500
      4 C04         -0.4040    -1.7380     0.0220 ca         1 C70      -0.096400
      5 C05         -0.7200    -0.3930     0.1300 ca         1 C70      -0.228100
      6 C06         -1.4440    -2.6790    -0.0120 ca         1 C70       0.273800
      7 N07         -2.6930    -2.2890     0.0490 nb         1 C70      -0.274000
      8 N08         -3.0350    -1.0240     0.1480 nb         1 C70      -0.427000
      9 C09         -2.1040    -0.0710     0.2050 ca         1 C70       0.688200
     10 N10         -2.5050     1.2000     0.3510 nu         1 C70      -0.862900
     11 C11          2.9500     0.2450     0.0010 ca         1 C70      -0.023800
     12 C12         -1.1370    -4.1290    -0.1220 c          1 C70       0.590600
     13 C13         -3.8850     1.6420     0.3310 c6         1 C70       0.234500
     14 C14         -4.3860     1.8300    -1.1010 c6         1 C70       0.140800
     15 N15         -5.7580     2.2950    -1.0780 n7         1 C70      -0.803200
     16 C16         -5.8810     3.5920    -0.4370 c6         1 C70       0.156800
     17 C17         -5.4390     3.4860     1.0140 c6         1 C70      -0.072400
     18 C18         -4.0160     2.9460     1.1100 c6         1 C70      -0.088400
     19 C19          4.0360    -0.5250     0.4210 ca         1 C70      -0.109000
     20 C20          5.3270    -0.0250     0.3740 ca         1 C70      -0.118500
     21 C21          5.5380     1.2620    -0.0940 ca         1 C70       0.031400
     22 C22          4.4780     2.0500    -0.5160 ca         1 C70      -0.118500
     23 C23          3.1940     1.5370    -0.4700 ca         1 C70      -0.109000
     24 CL24         7.1480     1.8950    -0.1540 cl         1 C70      -0.106400
     25 N25         -2.1850    -4.9520    -0.1430 nt         1 C70      -0.646000
     26 O26          0.0350    -4.4850    -0.1850 o          1 C70      -0.626100
     27 H01          0.4100     1.5180     0.2410 ha         1 C70       0.149000
     28 HN10        -1.8010     1.9200     0.3040 hn         1 C70       0.433800
     29 H13         -4.4950     0.8760     0.8120 h1         1 C70       0.102700
     30 H14         -3.7030     2.5270    -1.6170 h1         1 C70       0.037700
     31 H14A        -4.3400     0.8790    -1.6360 h1         1 C70       0.037700
     32 HN15        -6.1120     2.3450    -2.0240 hn         1 C70       0.362800
     33 H16         -5.2770     4.3670    -0.9380 h1         1 C70       0.030700
     34 H16A        -6.9220     3.9150    -0.4920 h1         1 C70       0.030700
     35 H17         -5.5010     4.4640     1.4960 hc         1 C70       0.052200
     36 H17A        -6.1220     2.8210     1.5500 hc         1 C70       0.052200
     37 H18         -3.7300     2.7900     2.1530 hc         1 C70       0.043200
     38 H18A        -3.3200     3.6860     0.6940 hc         1 C70       0.043200
     39 H19          3.8860    -1.5250     0.8080 ha         1 C70       0.139000
     40 H20          6.1570    -0.6360     0.7050 ha         1 C70       0.149500
     41 H22          4.6500     3.0510    -0.8870 ha         1 C70       0.149500
     42 H23          2.3760     2.1510    -0.8250 ha         1 C70       0.139000
     43 HN25        -3.1230    -4.5900    -0.0900 hn         1 C70       0.330000
     44 HN2A        -2.0540    -5.9480    -0.2090 hn         1 C70       0.330000
@<TRIPOS>BOND
     1     1     2 2   
     2     1     5 1   
     3     1    27 1   
     4     2     3 1   
     5     2    11 1   
     6     3     4 1   
     7     4     5 ar  
     8     4     6 ar  
     9     5     9 ar  
    10     6     7 ar  
    11     6    12 1   
    12     7     8 ar  
    13     8     9 ar  
    14     9    10 1   
    15    10    13 1   
    16    10    28 1   
    17    11    19 ar  
    18    11    23 ar  
    19    12    25 1   
    20    12    26 2   
    21    13    14 1   
    22    13    18 1   
    23    13    29 1   
    24    14    15 1   
    25    14    30 1   
    26    14    31 1   
    27    15    16 1   
    28    15    32 1   
    29    16    17 1   
    30    16    33 1   
    31    16    34 1   
    32    17    18 1   
    33    17    35 1   
    34    17    36 1   
    35    18    37 1   
    36    18    38 1   
    37    19    20 ar  
    38    19    39 1   
    39    20    21 ar  
    40    20    40 1   
    41    21    22 ar  
    42    21    24 1   
    43    22    23 ar  
    44    22    41 1   
    45    23    42 1   
    46    25    43 1   
    47    25    44 1   
@<TRIPOS>SUBSTRUCTURE
     1 C70         1 TEMP              0 ****  ****    0 ROOT
