@<TRIPOS>MOLECULE
C70
   44    47     1     0     0
SMALL
No Charge or Current Charge


@<TRIPOS>ATOM
      1 C01          0.4000     0.3950     0.2380 cc         1 C70      -0.160200
      2 C02          1.5880    -0.3070     0.0670 cd         1 C70      -0.042600
      3 S03          1.3290    -2.0800    -0.0720 ss         1 C70       0.259400
      4 C04         -0.4220    -1.8220     0.1080 ca         1 C70      -0.158000
      5 C05         -0.7560    -0.4840     0.2610 ca         1 C70      -0.162800
      6 C06         -1.4450    -2.8060     0.1090 ca         1 C70       0.208500
      7 N07         -2.7440    -2.4030     0.2620 nb         1 C70      -0.274000
      8 N08         -3.0700    -1.0950     0.4110 nb         1 C70      -0.427000
      9 C09         -2.1140    -0.1340     0.4130 ca         1 C70       0.622900
     10 N10         -2.5280     1.1840     0.5710 nu         1 C70      -0.918100
     11 C11          2.9520     0.2770    -0.0020 ca         1 C70      -0.023800
     12 C12         -1.1740    -4.3080    -0.0530 c          1 C70       0.523600
     13 C13         -3.9180     1.6710     0.4330 c6         1 C70       0.234500
     14 C14         -4.3800     1.6780    -1.0640 c6         1 C70       0.140800
     15 N15         -5.7320     2.2810    -1.2450 n7         1 C70      -0.858400
     16 C16         -5.8210     3.6570    -0.7000 c6         1 C70       0.156800
     17 C17         -5.4250     3.6960     0.7970 c6         1 C70      -0.072400
     18 C18         -4.0100     3.1020     1.0200 c6         1 C70      -0.088400
     19 C19          4.0880    -0.5500    -0.1790 ca         1 C70      -0.091000
     20 C20          5.3800     0.0020    -0.2450 ca         1 C70      -0.100500
     21 C21          5.5590     1.3880    -0.1340 ca         1 C70       0.123000
     22 C22          4.4480     2.2230     0.0420 ca         1 C70      -0.100500
     23 C23          3.1550     1.6730     0.1080 ca         1 C70      -0.091000
     24 Cl24         7.1760     2.0770    -0.2160 cl         1 C70      -0.198000
     25 N25         -2.2420    -5.1450    -0.0350 nt         1 C70      -0.579000
     26 O26         -0.0640    -4.7980    -0.1970 o          1 C70      -0.626100
     27 H01          0.3470     1.4740     0.3420 ha         1 C70       0.199000
     28 HN10        -1.7760     1.8650     0.5680 hn         1 C70       0.489000
     29 H13         -4.6110     1.0300     1.0020 h1         1 C70       0.102700
     30 H14         -3.6510     2.2450    -1.6630 h1         1 C70       0.037700
     31 H14A        -4.3890     0.6480    -1.4500 h1         1 C70       0.037700
     32 HN15        -5.9570     2.3040    -2.2490 hn         1 C70       0.418000
     33 H16         -5.1530     4.3190    -1.2720 h1         1 C70       0.030700
     34 H16A        -6.8470     4.0340    -0.8220 h1         1 C70       0.030700
     35 H17         -5.4590     4.7310     1.1620 hc         1 C70       0.052200
     36 H17A        -6.1620     3.1330     1.3870 hc         1 C70       0.052200
     37 H18         -3.7790     3.0850     2.0940 hc         1 C70       0.043200
     38 H18A        -3.2650     3.7540     0.5450 hc         1 C70       0.043200
     39 H19          3.9900    -1.6280    -0.2690 ha         1 C70       0.121000
     40 H20          6.2420    -0.6450    -0.3810 ha         1 C70       0.131500
     41 H22          4.5870     3.2980     0.1270 ha         1 C70       0.131500
     42 H23          2.3190     2.3520     0.2450 ha         1 C70       0.121000
     43 HN25        -3.1720    -4.7680     0.0830 hn         1 C70       0.330000
     44 HN2A        -2.0980    -6.1390    -0.1390 hn         1 C70       0.330000
@<TRIPOS>BOND
     1     1     2 2   
     2     1     5 1   
     3     1    27 1   
     4     2     3 1   
     5     2    11 1   
     6     3     4 1   
     7     4     5 ar  
     8     4     6 ar  
     9     5     9 ar  
    10     6     7 ar  
    11     6    12 1   
    12     7     8 ar  
    13     8     9 ar  
    14     9    10 1   
    15    10    13 1   
    16    10    28 1   
    17    11    19 ar  
    18    11    23 ar  
    19    12    25 1   
    20    12    26 2   
    21    13    14 1   
    22    13    18 1   
    23    13    29 1   
    24    14    15 1   
    25    14    30 1   
    26    14    31 1   
    27    15    16 1   
    28    15    32 1   
    29    16    17 1   
    30    16    33 1   
    31    16    34 1   
    32    17    18 1   
    33    17    35 1   
    34    17    36 1   
    35    18    37 1   
    36    18    38 1   
    37    19    20 ar  
    38    19    39 1   
    39    20    21 ar  
    40    20    40 1   
    41    21    22 ar  
    42    21    24 1   
    43    22    23 ar  
    44    22    41 1   
    45    23    42 1   
    46    25    43 1   
    47    25    44 1   
@<TRIPOS>SUBSTRUCTURE
     1 C70         1 TEMP              0 ****  ****    0 ROOT
