@<TRIPOS>MOLECULE
C71
   70    72     1     0     0
SMALL
No Charge or Current Charge


@<TRIPOS>ATOM
      1 C2           0.2440     3.4610    -0.1380 c3         1 C71      -0.083400
      2 C5           2.0870     1.0490    -2.4200 c2         1 C71       0.794200
      3 C6           2.6200     1.3170    -3.8100 c3         1 C71      -0.222400
      4 C1           0.6130     3.7770     1.3460 c5         1 C71      -0.052000
      5 C3           0.6640     2.0540    -0.6650 c3         1 C71       0.151500
      6 C9           2.2650    -2.6040    -1.1670 ca         1 C71      -0.236500
      7 N4           1.6250     2.1730    -1.7890 nu         1 C71      -0.846400
      8 N7           2.3620     0.0240    -1.7010 ne         1 C71      -0.893300
      9 S8           2.9430    -1.3880    -2.3130 sy         1 C71       1.211100
     10 O10          2.3600    -1.6180    -3.6380 o          1 C71      -0.570000
     11 O11          4.4000    -1.3500    -2.1480 o          1 C71      -0.570000
     12 C12         -0.5590     1.1680    -1.0830 c          1 C71       0.600100
     13 N13         -1.4010     0.8030    -0.0480 ns         1 C71      -0.499900
     14 O14         -0.7270     0.8020    -2.2420 o          1 C71      -0.596100
     15 C15         -2.6610     0.0340    -0.1310 c6         1 C71       0.136400
     16 C17         -2.3610    -1.4490    -0.5280 c6         1 C71      -0.069900
     17 C18         -1.3870    -2.1830     0.4390 c6         1 C71      -0.293400
     18 S19         -2.0170    -2.3060     2.1330 s6         1 C71       1.075000
     19 C20         -2.4320    -0.5640     2.4180 c6         1 C71      -0.293400
     20 C21         -3.3190     0.0520     1.2900 c6         1 C71      -0.069900
     21 C22          2.5700    -2.5100     0.2070 ca         1 C71      -0.020000
     22 C23          2.0670    -3.4660     1.1070 ca         1 C71      -0.139000
     23 C24          1.2680    -4.5230     0.6400 ca         1 C71      -0.059000
     24 C25          0.9630    -4.6190    -0.7280 ca         1 C71      -0.139000
     25 C26          1.4540    -3.6600    -1.6320 ca         1 C71      -0.020000
     26 C27         -0.1010     2.8370     2.3670 c5         1 C71      -0.075900
     27 C28          0.0940     3.5640     3.7280 c5         1 C71      -0.080900
     28 C29          0.1030     5.0830     3.3640 c5         1 C71      -0.080900
     29 C30         -0.0290     5.1200     1.8120 c5         1 C71      -0.075900
     30 C31          2.1700     3.7800     1.4730 c3         1 C71      -0.085100
     31 O32         -3.2570    -3.0910     2.1200 o          1 C71      -0.523500
     32 O33         -0.9160    -2.6850     3.0260 o          1 C71      -0.523500
     33 C16         -3.6590     0.6660    -1.1780 c3         1 C71       0.137800
     34 H21          0.6740     4.2390    -0.7820 hc         1 C71       0.056200
     35 H22A        -0.8400     3.5690    -0.2700 hc         1 C71       0.056200
     36 H61          3.6480     0.9560    -3.9240 hc         1 C71       0.084700
     37 H62          1.9930     0.8270    -4.5620 hc         1 C71       0.084700
     38 H63          2.6370     2.3850    -4.0500 hc         1 C71       0.084700
     39 H3           1.1540     1.4940     0.1400 h1         1 C71       0.095700
     40 HN4          1.4790     2.9530    -2.4220 hn         1 C71       0.501000
     41 HN13        -1.1570     1.1730     0.8590 hn         1 C71       0.312500
     42 H171        -3.3050    -2.0100    -0.5900 hc         1 C71       0.076950
     43 H172        -1.9400    -1.4800    -1.5420 hc         1 C71       0.076950
     44 H181        -1.2210    -3.2160     0.1150 h1         1 C71       0.107450
     45 H182        -0.4190    -1.6710     0.5050 h1         1 C71       0.107450
     46 H201        -2.9520    -0.5420     3.3840 h1         1 C71       0.107450
     47 H202        -1.4740    -0.0410     2.5230 h1         1 C71       0.107450
     48 H211        -3.5660     1.0860     1.5670 hc         1 C71       0.076950
     49 H212        -4.2830    -0.4780     1.2540 hc         1 C71       0.076950
     50 H22          3.1940    -1.6970     0.5750 ha         1 C71       0.132500
     51 H23          2.3000    -3.3890     2.1660 ha         1 C71       0.120500
     52 H24          0.8830    -5.2640     1.3380 ha         1 C71       0.125000
     53 H25          0.3420    -5.4360    -1.0900 ha         1 C71       0.120500
     54 H26          1.2100    -3.7500    -2.6890 ha         1 C71       0.132500
     55 H271        -1.1690     2.7350     2.1410 hc         1 C71       0.042950
     56 H272         0.3240     1.8270     2.3830 hc         1 C71       0.042950
     57 H281         1.0360     3.2700     4.2050 hc         1 C71       0.046950
     58 H282        -0.7060     3.3150     4.4350 hc         1 C71       0.046950
     59 H291         1.0320     5.5590     3.6980 hc         1 C71       0.046950
     60 H292        -0.7180     5.6250     3.8480 hc         1 C71       0.046950
     61 H301         0.4680     5.9950     1.3780 hc         1 C71       0.042950
     62 H302        -1.0840     5.1830     1.5200 hc         1 C71       0.042950
     63 H311         2.6220     4.4730     0.7530 hc         1 C71       0.038033
     64 H312         2.5160     4.0870     2.4670 hc         1 C71       0.038033
     65 H313         2.5970     2.7880     1.2860 hc         1 C71       0.038033
     66 H341        -3.1430     2.6580    -1.0610 hn         1 C71       0.400000
     67 H342        -4.5920     2.4270    -1.7310 hn         1 C71       0.400000
     68 H161        -3.2400     0.5580    -2.1880 h1         1 C71       0.052200
     69 H162        -4.5940     0.0880    -1.1570 h1         1 C71       0.052200
     70 N34         -3.9970     2.1000    -0.9600 n8         1 C71      -1.011200
@<TRIPOS>BOND
     1     1     4 1   
     2     1     5 1   
     3     1    34 1   
     4     1    35 1   
     5     2     3 1   
     6     2     7 1   
     7     2     8 2   
     8     3    36 1   
     9     3    37 1   
    10     3    38 1   
    11     4    26 1   
    12     4    29 1   
    13     4    30 1   
    14     5     7 1   
    15     5    12 1   
    16     5    39 1   
    17     6     9 1   
    18     6    21 ar  
    19     6    25 ar  
    20     7    40 1   
    21     8     9 1   
    22     9    10 2   
    23     9    11 2   
    24    12    13 1   
    25    12    14 2   
    26    13    15 1   
    27    13    41 1   
    28    15    16 1   
    29    15    20 1   
    30    15    33 1   
    31    16    17 1   
    32    16    42 1   
    33    16    43 1   
    34    17    18 1   
    35    17    44 1   
    36    17    45 1   
    37    18    19 1   
    38    18    31 2   
    39    18    32 2   
    40    19    20 1   
    41    19    46 1   
    42    19    47 1   
    43    20    48 1   
    44    20    49 1   
    45    21    22 ar  
    46    21    50 1   
    47    22    23 ar  
    48    22    51 1   
    49    23    24 ar  
    50    23    52 1   
    51    24    25 ar  
    52    24    53 1   
    53    25    54 1   
    54    26    27 1   
    55    26    55 1   
    56    26    56 1   
    57    27    28 1   
    58    27    57 1   
    59    27    58 1   
    60    28    29 1   
    61    28    59 1   
    62    28    60 1   
    63    29    61 1   
    64    29    62 1   
    65    30    63 1   
    66    30    64 1   
    67    30    65 1   
    68    33    68 1   
    69    33    69 1   
    70    33    70 1   
    71    66    70 1   
    72    67    70 1   
@<TRIPOS>SUBSTRUCTURE
     1 C71         1 TEMP              0 ****  ****    0 ROOT
