@<TRIPOS>MOLECULE
C71
   70    72     1     0     0
SMALL
bcc


@<TRIPOS>ATOM
      1 C2           0.0430     3.3380     0.0170 c3         1 C71      -0.083400
      2 C5           2.1680     1.0930    -2.0380 c2         1 C71       0.794200
      3 C6           3.0300     1.4090    -3.2220 c3         1 C71      -0.222400
      4 C1           0.8950     3.9870     1.1160 c5         1 C71      -0.052000
      5 C3           0.5240     1.9600    -0.4650 c3         1 C71       0.151500
      6 C9           2.1200    -2.6290    -0.9920 ca         1 C71      -0.236500
      7 N4           1.4710     2.1050    -1.5380 nu         1 C71      -0.791200
      8 N7           2.0370    -0.0690    -1.4580 ne         1 C71      -0.893300
      9 S8           2.8820    -1.3580    -1.9620 sy         1 C71       1.352700
     10 O10          2.6510    -1.6660    -3.3740 o          1 C71      -0.640800
     11 O11          4.2770    -1.2600    -1.5340 o          1 C71      -0.640800
     12 C12         -0.6670     1.1120    -0.9320 c          1 C71       0.667100
     13 N13         -1.3980     0.6170     0.0850 ns         1 C71      -0.566900
     14 O14         -0.9260     0.9560    -2.1100 o          1 C71      -0.596100
     15 C15         -2.7060    -0.0290    -0.0300 c6         1 C71       0.136400
     16 C17         -2.5730    -1.3910    -0.7260 c6         1 C71      -0.069900
     17 C18         -1.6720    -2.3820    -0.0020 c6         1 C71      -0.182600
     18 S19         -2.3100    -2.7370     1.6290 s6         1 C71       0.995000
     19 C20         -2.4350    -1.0900     2.3100 c6         1 C71      -0.182600
     20 C21         -3.2550    -0.1910     1.3950 c6         1 C71      -0.069900
     21 C22          2.2190    -2.5650     0.3940 ca         1 C71      -0.038000
     22 C23          1.6730    -3.5840     1.1550 ca         1 C71      -0.157000
     23 C24          1.0520    -4.6630     0.5340 ca         1 C71      -0.077000
     24 C25          0.9700    -4.7190    -0.8480 ca         1 C71      -0.157000
     25 C26          1.5010    -3.6950    -1.6230 ca         1 C71      -0.038000
     26 C27          0.8960     3.1120     2.4020 c5         1 C71      -0.075900
     27 C28          0.4940     4.0400     3.5470 c5         1 C71      -0.080900
     28 C29         -0.4840     5.0000     2.8790 c5         1 C71      -0.080900
     29 C30          0.2090     5.3100     1.5550 c5         1 C71      -0.075900
     30 C31          2.3200     4.2590     0.6400 c3         1 C71      -0.085100
     31 O32         -3.6670    -3.2740     1.4820 o          1 C71      -0.594300
     32 O33         -1.3510    -3.5170     2.4090 o          1 C71      -0.594300
     33 C16         -3.6960     0.8430    -0.8230 c3         1 C71       0.137800
     34 H21         -0.0300     4.0100    -0.8460 hc         1 C71       0.056200
     35 H22A        -0.9790     3.2460     0.4000 hc         1 C71       0.056200
     36 H61          4.0510     1.0690    -3.0570 hc         1 C71       0.084700
     37 H62          2.6470     0.8960    -4.1030 hc         1 C71       0.084700
     38 H63          3.0530     2.4750    -3.4290 hc         1 C71       0.084700
     39 H3           1.0150     1.4300     0.3600 h1         1 C71       0.095700
     40 HN4          1.5070     2.9910    -2.0170 hn         1 C71       0.445800
     41 HN13        -1.1150     0.8990     1.0100 hn         1 C71       0.312500
     42 H171        -3.5680    -1.8230    -0.8530 hc         1 C71       0.076950
     43 H172        -2.1730    -1.2540    -1.7310 hc         1 C71       0.076950
     44 H181        -1.6260    -3.3380    -0.5250 h1         1 C71       0.107450
     45 H182        -0.6510    -2.0120     0.1150 h1         1 C71       0.107450
     46 H201        -2.9110    -1.1990     3.2870 h1         1 C71       0.107450
     47 H202        -1.4170    -0.7360     2.4810 h1         1 C71       0.107450
     48 H211        -3.3420     0.7950     1.8560 hc         1 C71       0.076950
     49 H212        -4.2700    -0.5850     1.3270 hc         1 C71       0.076950
     50 H22          2.7020    -1.7270     0.8780 ha         1 C71       0.150500
     51 H23          1.7320    -3.5370     2.2330 ha         1 C71       0.138500
     52 H24          0.6250    -5.4570     1.1320 ha         1 C71       0.143000
     53 H25          0.4860    -5.5570    -1.3300 ha         1 C71       0.138500
     54 H26          1.4300    -3.7380    -2.7010 ha         1 C71       0.150500
     55 H271         0.1530     2.3100     2.3250 hc         1 C71       0.042950
     56 H272         1.8580     2.6240     2.5690 hc         1 C71       0.042950
     57 H281         1.3640     4.5940     3.9120 hc         1 C71       0.046950
     58 H282         0.0700     3.5030     4.3970 hc         1 C71       0.046950
     59 H291        -0.6920     5.8940     3.4690 hc         1 C71       0.046950
     60 H292        -1.4410     4.4970     2.7050 hc         1 C71       0.046950
     61 H301         0.9690     6.0800     1.7160 hc         1 C71       0.042950
     62 H302        -0.4720     5.6980     0.7940 hc         1 C71       0.042950
     63 H311         2.3310     4.9330    -0.2190 hc         1 C71       0.038033
     64 H312         2.9000     4.7300     1.4360 hc         1 C71       0.038033
     65 H313         2.8430     3.3450     0.3560 hc         1 C71       0.038033
     66 H341        -3.0560     2.7750    -0.7580 hn         1 C71       0.344800
     67 H342        -4.6410     2.6130    -0.5300 hn         1 C71       0.344800
     68 H161        -3.4570     0.7900    -1.8890 h1         1 C71       0.052200
     69 H162        -4.6820     0.3870    -0.7080 h1         1 C71       0.052200
     70 N34         -3.7490     2.1970    -0.3020 n8         1 C71      -0.900800
@<TRIPOS>BOND
     1     1     4 1   
     2     1     5 1   
     3     1    34 1   
     4     1    35 1   
     5     2     3 1   
     6     2     7 1   
     7     2     8 2   
     8     3    36 1   
     9     3    37 1   
    10     3    38 1   
    11     4    26 1   
    12     4    29 1   
    13     4    30 1   
    14     5     7 1   
    15     5    12 1   
    16     5    39 1   
    17     6     9 1   
    18     6    21 ar  
    19     6    25 ar  
    20     7    40 1   
    21     8     9 1   
    22     9    10 2   
    23     9    11 2   
    24    12    13 1   
    25    12    14 2   
    26    13    15 1   
    27    13    41 1   
    28    15    16 1   
    29    15    20 1   
    30    15    33 1   
    31    16    17 1   
    32    16    42 1   
    33    16    43 1   
    34    17    18 1   
    35    17    44 1   
    36    17    45 1   
    37    18    19 1   
    38    18    31 2   
    39    18    32 2   
    40    19    20 1   
    41    19    46 1   
    42    19    47 1   
    43    20    48 1   
    44    20    49 1   
    45    21    22 ar  
    46    21    50 1   
    47    22    23 ar  
    48    22    51 1   
    49    23    24 ar  
    50    23    52 1   
    51    24    25 ar  
    52    24    53 1   
    53    25    54 1   
    54    26    27 1   
    55    26    55 1   
    56    26    56 1   
    57    27    28 1   
    58    27    57 1   
    59    27    58 1   
    60    28    29 1   
    61    28    59 1   
    62    28    60 1   
    63    29    61 1   
    64    29    62 1   
    65    30    63 1   
    66    30    64 1   
    67    30    65 1   
    68    33    68 1   
    69    33    69 1   
    70    33    70 1   
    71    66    70 1   
    72    67    70 1   
@<TRIPOS>SUBSTRUCTURE
     1 C71         1 TEMP              0 ****  ****    0 ROOT
