@<TRIPOS>MOLECULE
C72
   45    48     1     0     0
SMALL
bcc


@<TRIPOS>ATOM
      1 C01          0.3670     0.3990     0.1280 cc         1 C72      -0.101200
      2 C02          1.5290    -0.2970     0.0280 cd         1 C72      -0.053600
      3 S03          1.2510    -2.0190    -0.0670 ss         1 C72       0.091500
      4 C04         -0.4540    -1.7970     0.0270 ca         1 C72       0.047900
      5 C05         -0.7810    -0.4470     0.1270 ca         1 C72      -0.274100
      6 C06         -1.4510    -2.7890     0.0000 ca         1 C72      -0.323900
      7 C07         -2.7500    -2.3170     0.0730 ca         1 C72       0.505200
      8 N08         -3.1020    -1.0390     0.1690 nb         1 C72      -0.778000
      9 C09         -2.1600    -0.1010     0.2090 ca         1 C72       0.756200
     10 N10         -2.5330     1.1810     0.3430 nu         1 C72      -0.863900
     11 C11          2.8880     0.2360    -0.0250 ca         1 C72      -0.013800
     12 C12         -1.0520    -4.2050    -0.1030 c          1 C72       0.702700
     13 C13         -3.9030     1.6500     0.3270 c6         1 C72       0.234500
     14 C14         -4.3940     1.8700    -1.1040 c6         1 C72       0.140800
     15 N15         -5.7590     2.3570    -1.0810 n7         1 C72      -0.804200
     16 C16         -5.8630     3.6460    -0.4190 c6         1 C72       0.155800
     17 C17         -5.4310     3.5090     1.0330 c6         1 C72      -0.072400
     18 C18         -4.0170     2.9430     1.1260 c6         1 C72      -0.088400
     19 C19          3.1170     1.5370    -0.4810 ca         1 C72      -0.112000
     20 C20          4.3960     2.0630    -0.5340 ca         1 C72      -0.118500
     21 C21          5.4690     1.2790    -0.1370 ca         1 C72       0.027400
     22 C22          5.2740    -0.0170     0.3130 ca         1 C72      -0.118500
     23 C23          3.9880    -0.5280     0.3690 ca         1 C72      -0.112000
     24 CL24         7.0720     1.9280    -0.2090 cl         1 C72      -0.110400
     25 N25         -2.0100    -5.1410    -0.1220 nt         1 C72      -0.667000
     26 O26          0.1430    -4.4900    -0.1630 o          1 C72      -0.627100
     27 H01          0.3330     1.4760     0.2160 ha         1 C72       0.143000
     28 H07         -3.5870    -3.0060     0.0510 h4         1 C72       0.007100
     29 HN10        -1.8170     1.8870     0.2990 hn         1 C72       0.435800
     30 H13         -4.5290     0.8860     0.7910 h1         1 C72       0.100700
     31 H14         -3.6980     2.5640    -1.6060 h1         1 C72       0.036700
     32 H14A        -4.3620     0.9270    -1.6540 h1         1 C72       0.036700
     33 HN15        -6.1070     2.4300    -2.0270 hn         1 C72       0.361800
     34 H16         -5.2440     4.4200    -0.9030 h1         1 C72       0.030700
     35 H16A        -6.8990     3.9870    -0.4730 h1         1 C72       0.030700
     36 H17         -5.4790     4.4790     1.5310 hc         1 C72       0.051700
     37 H17A        -6.1270     2.8450     1.5530 hc         1 C72       0.051700
     38 H18         -3.7390     2.7670     2.1680 hc         1 C72       0.043700
     39 H18A        -3.3070     3.6780     0.7260 hc         1 C72       0.043700
     40 H19          2.2890     2.1490    -0.8170 ha         1 C72       0.138500
     41 H20          4.5530     3.0710    -0.8940 ha         1 C72       0.147500
     42 H22          6.1130    -0.6240     0.6230 ha         1 C72       0.147500
     43 H23          3.8530    -1.5360     0.7430 ha         1 C72       0.138500
     44 HN25        -2.9920    -4.9330    -0.0920 hn         1 C72       0.315500
     45 HN2A        -1.7540    -6.1120    -0.1950 hn         1 C72       0.315500
@<TRIPOS>BOND
     1     1     2 2   
     2     1     5 1   
     3     1    27 1   
     4     2     3 1   
     5     2    11 1   
     6     3     4 1   
     7     4     5 ar  
     8     4     6 ar  
     9     5     9 ar  
    10     6     7 ar  
    11     6    12 1   
    12     7     8 ar  
    13     7    28 1   
    14     8     9 ar  
    15     9    10 1   
    16    10    13 1   
    17    10    29 1   
    18    11    19 ar  
    19    11    23 ar  
    20    12    25 1   
    21    12    26 2   
    22    13    14 1   
    23    13    18 1   
    24    13    30 1   
    25    14    15 1   
    26    14    31 1   
    27    14    32 1   
    28    15    16 1   
    29    15    33 1   
    30    16    17 1   
    31    16    34 1   
    32    16    35 1   
    33    17    18 1   
    34    17    36 1   
    35    17    37 1   
    36    18    38 1   
    37    18    39 1   
    38    19    20 ar  
    39    19    40 1   
    40    20    21 ar  
    41    20    41 1   
    42    21    22 ar  
    43    21    24 1   
    44    22    23 ar  
    45    22    42 1   
    46    23    43 1   
    47    25    44 1   
    48    25    45 1   
@<TRIPOS>SUBSTRUCTURE
     1 C72         1 TEMP              0 ****  ****    0 ROOT
