@<TRIPOS>MOLECULE
C72
   45    48     1     0     0
SMALL
No Charge or Current Charge


@<TRIPOS>ATOM
      1 C01          0.3410     0.3560     0.2610 cc         1 C72      -0.151200
      2 C02          1.5380    -0.3160     0.0440 cd         1 C72      -0.053600
      3 S03          1.3070    -2.0870    -0.1310 ss         1 C72       0.218400
      4 C04         -0.4480    -1.8670     0.0990 ca         1 C72      -0.079000
      5 C05         -0.7990    -0.5460     0.2920 ca         1 C72      -0.208800
      6 C06         -1.4590    -2.8590     0.1020 ca         1 C72      -0.258600
      7 C07         -2.7830    -2.4150     0.3070 ca         1 C72       0.439900
      8 N08         -3.1300    -1.1210     0.4960 nb         1 C72      -0.778000
      9 C09         -2.1520    -0.2090     0.4860 ca         1 C72       0.690900
     10 N10         -2.5590     1.0930     0.6870 nu         1 C72      -0.919100
     11 C11          2.8890     0.2950    -0.0460 ca         1 C72      -0.013800
     12 C12         -1.1820    -4.3270    -0.0990 c          1 C72       0.635700
     13 C13         -3.9280     1.6110     0.4700 c6         1 C72       0.234500
     14 C14         -4.2890     1.6680    -1.0540 c6         1 C72       0.140800
     15 N15         -5.6130     2.3060    -1.3090 n7         1 C72      -0.859400
     16 C16         -5.7120     3.6680    -0.7320 c6         1 C72       0.155800
     17 C17         -5.4200     3.6560     0.7900 c6         1 C72      -0.072400
     18 C18         -4.0350     3.0280     1.0910 c6         1 C72      -0.088400
     19 C19          3.0690     1.6920     0.0920 ca         1 C72      -0.094000
     20 C20          4.3490     2.2670     0.0060 ca         1 C72      -0.100500
     21 C21          5.4710     1.4570    -0.2180 ca         1 C72       0.119000
     22 C22          5.3140     0.0710    -0.3570 ca         1 C72      -0.100500
     23 C23          4.0340    -0.5070    -0.2720 ca         1 C72      -0.094000
     24 Cl24         7.0720     2.1770    -0.3250 cl         1 C72      -0.202000
     25 N25         -2.2200    -5.1880    -0.0770 nt         1 C72      -0.600000
     26 O26         -0.0660    -4.7800    -0.2820 o          1 C72      -0.627100
     27 H01          0.2740     1.4310     0.3910 ha         1 C72       0.193000
     28 H07         -3.6180    -3.1130     0.3250 h4         1 C72       0.007100
     29 HN10        -1.7960     1.7590     0.7040 hn         1 C72       0.491000
     30 H13         -4.6700     0.9700     0.9730 h1         1 C72       0.100700
     31 H14         -3.5100     2.2340    -1.5870 h1         1 C72       0.036700
     32 H14A        -4.2940     0.6500    -1.4680 h1         1 C72       0.036700
     33 HN15        -5.7680     2.3620    -2.3250 hn         1 C72       0.417000
     34 H16         -4.9930     4.3310    -1.2370 h1         1 C72       0.030700
     35 H16A        -6.7190     4.0710    -0.9120 h1         1 C72       0.030700
     36 H17         -5.4600     4.6820     1.1820 hc         1 C72       0.051700
     37 H17A        -6.2060     3.0920     1.3100 hc         1 C72       0.051700
     38 H18         -3.8780     2.9770     2.1770 hc         1 C72       0.043700
     39 H18A        -3.2470     3.6780     0.6870 hc         1 C72       0.043700
     40 H19          2.2250     2.3510     0.2660 ha         1 C72       0.120500
     41 H20          4.4710     3.3420     0.1130 ha         1 C72       0.129500
     42 H22          6.1840    -0.5570    -0.5310 ha         1 C72       0.129500
     43 H23          3.9530    -1.5840    -0.3840 ha         1 C72       0.120500
     44 HN25        -3.1620    -4.8600     0.0700 hn         1 C72       0.315500
     45 HN2A        -2.0390    -6.1720    -0.2120 hn         1 C72       0.315500
@<TRIPOS>BOND
     1     1     2 2   
     2     1     5 1   
     3     1    27 1   
     4     2     3 1   
     5     2    11 1   
     6     3     4 1   
     7     4     5 ar  
     8     4     6 ar  
     9     5     9 ar  
    10     6     7 ar  
    11     6    12 1   
    12     7     8 ar  
    13     7    28 1   
    14     8     9 ar  
    15     9    10 1   
    16    10    13 1   
    17    10    29 1   
    18    11    19 ar  
    19    11    23 ar  
    20    12    25 1   
    21    12    26 2   
    22    13    14 1   
    23    13    18 1   
    24    13    30 1   
    25    14    15 1   
    26    14    31 1   
    27    14    32 1   
    28    15    16 1   
    29    15    33 1   
    30    16    17 1   
    31    16    34 1   
    32    16    35 1   
    33    17    18 1   
    34    17    36 1   
    35    17    37 1   
    36    18    38 1   
    37    18    39 1   
    38    19    20 ar  
    39    19    40 1   
    40    20    21 ar  
    41    20    41 1   
    42    21    22 ar  
    43    21    24 1   
    44    22    23 ar  
    45    22    42 1   
    46    23    43 1   
    47    25    44 1   
    48    25    45 1   
@<TRIPOS>SUBSTRUCTURE
     1 C72         1 TEMP              0 ****  ****    0 ROOT
