@<TRIPOS>MOLECULE
C73
   44    46     1     0     0
SMALL
No Charge or Current Charge


@<TRIPOS>ATOM
      1 S01         -1.4230     2.2120    -0.1410 ss         1 C73       0.317000
      2 C02          0.3490     2.1700    -0.0660 cc         1 C73       0.028600
      3 C03          0.8340     0.8760     0.0520 cd         1 C73      -0.286600
      4 C04         -0.2260    -0.0920     0.0710 cd         1 C73      -0.067000
      5 C05         -1.4780     0.4600    -0.0390 cc         1 C73      -0.222000
      6 N06          1.1980     3.2700    -0.1060 ns         1 C73      -0.398100
      7 C07          0.8860     4.5990    -0.2160 c          1 C73       0.660100
      8 N08          1.9580     5.4050    -0.2240 nt         1 C73      -0.610000
      9 O09         -0.2410     5.0490    -0.3010 o          1 C73      -0.631100
     10 C10          2.2940     0.5670     0.1480 c          1 C73       0.654700
     11 O11          3.1850     1.4070     0.1310 o          1 C73      -0.661100
     12 N12          2.5650    -0.7730     0.2590 ns         1 C73      -0.490900
     13 C13          3.9050    -1.3700     0.3570 c6         1 C73       0.106700
     14 C14          4.5880    -1.4660    -1.0420 c6         1 C73       0.143800
     15 N15          5.9170    -2.1340    -0.9760 n7         1 C73      -0.861400
     16 C16          5.8450    -3.4940    -0.3920 c6         1 C73       0.157800
     17 C17          5.2030    -3.4650     1.0170 c6         1 C73      -0.073400
     18 C18          3.8110    -2.7850     0.9830 c6         1 C73      -0.088400
     19 C19         -2.6920    -0.3600    -0.0180 ca         1 C73       0.009000
     20 C20         -2.7050    -1.6590    -0.5700 ca         1 C73      -0.099500
     21 C21         -3.8800    -2.4320    -0.5490 ca         1 C73      -0.098500
     22 C22         -5.0520    -1.9120     0.0200 ca         1 C73       0.116000
     23 C23         -5.0530    -0.6190     0.5660 ca         1 C73      -0.098500
     24 C24         -3.8790     0.1550     0.5440 ca         1 C73      -0.099500
     25 Cl25        -6.5220    -2.8780     0.0460 cl         1 C73      -0.203000
     26 H04         -0.0660    -1.1610     0.1730 ha         1 C73       0.124000
     27 HN06         2.1910     3.0670    -0.0450 hn         1 C73       0.371500
     28 HN08         2.8910     5.0310    -0.1530 hn         1 C73       0.330000
     29 HN0A         1.8140     6.4000    -0.3020 hn         1 C73       0.330000
     30 HN12         1.7650    -1.3900     0.2660 hn         1 C73       0.312500
     31 H13          4.5270    -0.7340     1.0060 h1         1 C73       0.096700
     32 H14          3.9350    -2.0270    -1.7270 h1         1 C73       0.035700
     33 H14A         4.7120    -0.4560    -1.4590 h1         1 C73       0.035700
     34 HN15         6.3050    -2.2010    -1.9270 hn         1 C73       0.416000
     35 H16          5.2480    -4.1430    -1.0510 h1         1 C73       0.029700
     36 H16A         6.8560    -3.9220    -0.3290 h1         1 C73       0.029700
     37 H17          5.1120    -4.4880     1.4050 hc         1 C73       0.050700
     38 H17A         5.8630    -2.9250     1.7110 hc         1 C73       0.050700
     39 H18          3.4030    -2.7200     2.0010 hc         1 C73       0.042700
     40 H18A         3.1150    -3.4060     0.4020 hc         1 C73       0.042700
     41 H20         -1.8100    -2.0720    -1.0290 ha         1 C73       0.119000
     42 H21         -3.8820    -3.4310    -0.9770 ha         1 C73       0.129000
     43 H23         -5.9620    -0.2160     1.0050 ha         1 C73       0.129000
     44 H24         -3.8930     1.1520     0.9760 ha         1 C73       0.119000
@<TRIPOS>BOND
     1     1     2 1   
     2     1     5 1   
     3     2     3 2   
     4     2     6 1   
     5     3     4 1   
     6     3    10 1   
     7     4     5 2   
     8     4    26 1   
     9     5    19 1   
    10     6     7 1   
    11     6    27 1   
    12     7     8 1   
    13     7     9 2   
    14     8    28 1   
    15     8    29 1   
    16    10    11 2   
    17    10    12 1   
    18    12    13 1   
    19    12    30 1   
    20    13    14 1   
    21    13    18 1   
    22    13    31 1   
    23    14    15 1   
    24    14    32 1   
    25    14    33 1   
    26    15    16 1   
    27    15    34 1   
    28    16    17 1   
    29    16    35 1   
    30    16    36 1   
    31    17    18 1   
    32    17    37 1   
    33    17    38 1   
    34    18    39 1   
    35    18    40 1   
    36    19    20 ar  
    37    19    24 ar  
    38    20    21 ar  
    39    20    41 1   
    40    21    22 ar  
    41    21    42 1   
    42    22    23 ar  
    43    22    25 1   
    44    23    24 ar  
    45    23    43 1   
    46    24    44 1   
@<TRIPOS>SUBSTRUCTURE
     1 C73         1 TEMP              0 ****  ****    0 ROOT
