@<TRIPOS>MOLECULE
C73
   44    46     1     0     0
SMALL
bcc


@<TRIPOS>ATOM
      1 S01         -1.3070     2.0730    -0.0280 ss         1 C73       0.027200
      2 C02          0.4150     1.9980     0.0180 cc         1 C73       0.173500
      3 C03          0.8760     0.6930     0.0390 cd         1 C73      -0.286600
      4 C04         -0.2020    -0.2390     0.0180 cd         1 C73      -0.085000
      5 C05         -1.4310     0.3370    -0.0190 cc         1 C73      -0.077100
      6 N06          1.1970     3.1130     0.0300 ns         1 C73      -0.465100
      7 C07          0.7070     4.3990     0.0290 c          1 C73       0.794100
      8 N08          1.6490     5.3540     0.0510 nt         1 C73      -0.677000
      9 O09         -0.4970     4.6160     0.0050 o          1 C73      -0.631100
     10 C10          2.3150     0.3770     0.0850 c          1 C73       0.721700
     11 O11          3.1660     1.2720     0.0500 o          1 C73      -0.661100
     12 N12          2.6510    -0.9190     0.1770 ns         1 C73      -0.557900
     13 C13          4.0160    -1.4030     0.1880 c6         1 C73       0.106700
     14 C14          4.4690    -1.8030    -1.2170 c6         1 C73       0.143800
     15 N15          5.8370    -2.2800    -1.1650 n7         1 C73      -0.806200
     16 C16          5.9650    -3.4730    -0.3470 c6         1 C73       0.157800
     17 C17          5.5670    -3.1530     1.0850 c6         1 C73      -0.073400
     18 C18          4.1530    -2.5830     1.1440 c6         1 C73      -0.088400
     19 C19         -2.7350    -0.3150    -0.0580 ca         1 C73       0.009000
     20 C20         -2.8610    -1.6180    -0.5480 ca         1 C73      -0.117500
     21 C21         -4.0870    -2.2580    -0.5800 ca         1 C73      -0.116500
     22 C22         -5.2160    -1.5880    -0.1310 ca         1 C73       0.024400
     23 C23         -5.1260    -0.2930     0.3520 ca         1 C73      -0.116500
     24 C24         -3.8900     0.3320     0.3900 ca         1 C73      -0.117500
     25 CL25        -6.7560    -2.3790    -0.1790 cl         1 C73      -0.111400
     26 H04         -0.0770    -1.3130     0.0440 ha         1 C73       0.142000
     27 HN06         2.1950     2.9130     0.0390 hn         1 C73       0.371500
     28 HN08         2.6330     5.1540     0.1050 hn         1 C73       0.330000
     29 HN0A         1.3690     6.3190     0.0760 hn         1 C73       0.330000
     30 HN12         1.9270    -1.6180     0.1700 hn         1 C73       0.312500
     31 H13          4.6580    -0.5920     0.5360 h1         1 C73       0.096700
     32 H14          3.7660    -2.5580    -1.6090 h1         1 C73       0.035700
     33 H14A         4.4140    -0.9360    -1.8790 h1         1 C73       0.035700
     34 HN15         6.1630    -2.4690    -2.1030 hn         1 C73       0.360800
     35 H16          5.3400    -4.3050    -0.7150 h1         1 C73       0.029700
     36 H16A         7.0010    -3.8140    -0.3830 h1         1 C73       0.029700
     37 H17          5.6340    -4.0520     1.7020 hc         1 C73       0.050700
     38 H17A         6.2710    -2.4260     1.5000 hc         1 C73       0.050700
     39 H18          3.9050    -2.2700     2.1610 hc         1 C73       0.042700
     40 H18A         3.4330    -3.3620     0.8660 hc         1 C73       0.042700
     41 H20         -1.9930    -2.1410    -0.9270 ha         1 C73       0.137000
     42 H21         -4.1620    -3.2660    -0.9660 ha         1 C73       0.147000
     43 H23         -6.0060     0.2270     0.7040 ha         1 C73       0.147000
     44 H24         -3.8370     1.3360     0.7940 ha         1 C73       0.137000
@<TRIPOS>BOND
     1     1     2 1   
     2     1     5 1   
     3     2     3 2   
     4     2     6 1   
     5     3     4 1   
     6     3    10 1   
     7     4     5 2   
     8     4    26 1   
     9     5    19 1   
    10     6     7 1   
    11     6    27 1   
    12     7     8 1   
    13     7     9 2   
    14     8    28 1   
    15     8    29 1   
    16    10    11 2   
    17    10    12 1   
    18    12    13 1   
    19    12    30 1   
    20    13    14 1   
    21    13    18 1   
    22    13    31 1   
    23    14    15 1   
    24    14    32 1   
    25    14    33 1   
    26    15    16 1   
    27    15    34 1   
    28    16    17 1   
    29    16    35 1   
    30    16    36 1   
    31    17    18 1   
    32    17    37 1   
    33    17    38 1   
    34    18    39 1   
    35    18    40 1   
    36    19    20 ar  
    37    19    24 ar  
    38    20    21 ar  
    39    20    41 1   
    40    21    22 ar  
    41    21    42 1   
    42    22    23 ar  
    43    22    25 1   
    44    23    24 ar  
    45    23    43 1   
    46    24    44 1   
@<TRIPOS>SUBSTRUCTURE
     1 C73         1 TEMP              0 ****  ****    0 ROOT
