@<TRIPOS>MOLECULE
C74
   40    43     1     0     0
SMALL
abcg2


@<TRIPOS>ATOM
      1 N1          44.1330   103.7350     5.4820 nb         1 C74      -0.238000
      2 N3          43.7000   101.3110     8.6860 na         1 C74      -0.246400
      3 C4          44.6840   101.7340     6.6640 ca         1 C74      -0.285800
      4 C5          44.5960   100.4060     8.5080 cc         1 C74       0.005900
      5 C6          45.3280   100.6540     7.2500 cd         1 C74      -0.022400
      6 C7          46.5280    99.9560     6.9560 ca         1 C74      -0.018800
      7 C8          46.7410    98.6570     7.4540 ca         1 C74      -0.236000
      8 C10         48.9220    98.6580     6.4530 ca         1 C74       0.074000
      9 C13         45.2680   102.9500     3.1170 c6         1 C74       0.156800
     10 C15         44.5330   100.2660     2.7900 c6         1 C74       0.136100
     11 C1          44.6970   102.4950     5.4440 ca         1 C74       0.442900
     12 C2          43.3760   104.0730     6.4650 ca         1 C74       0.230900
     13 N2          43.0570   103.2990     7.5630 nb         1 C74      -0.177000
     14 C3          43.7250   102.2190     7.6060 ca         1 C74       0.168500
     15 C9          47.9160    97.9640     7.1740 ca         1 C74       0.245100
     16 C11         48.7380    99.9600     6.0010 ca         1 C74      -0.170000
     17 C12         47.5470   100.6130     6.2200 ca         1 C74       0.080000
     18 O1          48.0790    96.7290     7.5660 os         1 C74      -0.224900
     19 S1          49.6450    96.3680     8.7130 s4         1 C74       0.627600
     20 O2          50.5990    95.8540     7.7200 o          1 C74      -0.378900
     21 O3          49.9630    97.7320     9.1640 o          1 C74      -0.378900
     22 N4          45.1450   102.0760     4.2850 nh         1 C74      -0.700300
     23 C14         44.3850   102.4300     1.9920 c6         1 C74       0.136100
     24 O4          44.7070   101.0990     1.6800 os         1 C74      -0.414000
     25 C16         45.4140   100.6840     3.9740 c6         1 C74       0.156800
     26 H1          43.0950   101.3990     9.5010 hn         1 C74       0.410000
     27 H2          44.7820    99.6320     9.2400 h4         1 C74       0.264000
     28 H3          45.9640    98.1440     8.0080 ha         1 C74       0.144000
     29 H4          49.8500    98.1510     6.2260 ha         1 C74       0.175000
     30 H6          45.0010   103.9680     3.3790 h1         1 C74       0.085450
     31 H7          43.4870   100.2580     3.1230 h1         1 C74       0.075450
     32 H8          44.8120    99.2520     2.5050 h1         1 C74       0.075450
     33 H9          42.9310   105.0600     6.4490 h5         1 C74       0.088100
     34 H10         49.5350   100.4590     5.4680 ha         1 C74       0.162000
     35 H11         47.4230   101.6380     5.8970 ha         1 C74       0.146000
     36 H14         44.5570   103.0360     1.1030 h1         1 C74       0.075450
     37 H15         43.3300   102.5280     2.2780 h1         1 C74       0.075450
     38 H16         45.1670   100.0350     4.8080 h1         1 C74       0.085450
     39 H17         46.4740   100.5730     3.7310 h1         1 C74       0.085450
     40 H5          46.3180   102.9200     2.8180 h1         1 C74       0.085450
@<TRIPOS>BOND
     1     1    11 ar  
     2     1    12 ar  
     3     2     4 1   
     4     2    14 1   
     5     2    26 1   
     6     3     5 1   
     7     3    11 ar  
     8     3    14 ar  
     9     4     5 2   
    10     4    27 1   
    11     5     6 1   
    12     6     7 ar  
    13     6    17 ar  
    14     7    15 ar  
    15     7    28 1   
    16     8    15 ar  
    17     8    16 ar  
    18     8    29 1   
    19     9    22 1   
    20     9    23 1   
    21     9    30 1   
    22     9    40 1   
    23    10    24 1   
    24    10    25 1   
    25    10    31 1   
    26    10    32 1   
    27    11    22 1   
    28    12    13 ar  
    29    12    33 1   
    30    13    14 ar  
    31    15    18 1   
    32    16    17 ar  
    33    16    34 1   
    34    17    35 1   
    35    18    19 1   
    36    19    20 1   
    37    19    21 1   
    38    22    25 1   
    39    23    24 1   
    40    23    36 1   
    41    23    37 1   
    42    25    38 1   
    43    25    39 1   
@<TRIPOS>SUBSTRUCTURE
     1 C74         1 TEMP              0 ****  ****    0 ROOT
