@<TRIPOS>MOLECULE
C74
   40    43     1     0     0
SMALL
No Charge or Current Charge


@<TRIPOS>ATOM
      1 N1          43.7540   103.3610     5.2600 nb         1 C74      -0.238000
      2 N3          43.8830   101.4950     8.9160 na         1 C74      -0.246400
      3 C4          44.6710   101.8400     6.8530 ca         1 C74      -0.285800
      4 C5          44.9080   100.5410     8.7680 cc         1 C74       0.005900
      5 C6          45.4580   100.8060     7.5230 cd         1 C74      -0.022400
      6 C7          46.6320   100.0910     6.9810 ca         1 C74      -0.018800
      7 C8          46.8920    98.7610     7.3800 ca         1 C74      -0.236000
      8 C10         48.9160    98.7160     6.0220 ca         1 C74       0.074000
      9 C13         45.7810   102.6970     3.3080 c6         1 C74       0.156800
     10 C15         44.1930   100.3150     2.7980 c6         1 C74       0.136100
     11 C1          44.6270   102.3720     5.5450 ca         1 C74       0.442900
     12 C2          42.9350   103.7630     6.2570 ca         1 C74       0.230900
     13 N2          42.8650   103.2450     7.5030 nb         1 C74      -0.177000
     14 C3          43.7440   102.2680     7.7780 ca         1 C74       0.168500
     15 C9          48.0230    98.0780     6.9010 ca         1 C74       0.245100
     16 C11         48.6880   100.0520     5.6490 ca         1 C74      -0.170000
     17 C12         47.5610   100.7380     6.1360 ca         1 C74       0.080000
     18 O1          48.2300    96.7790     7.2820 os         1 C74      -0.224900
     19 S1          49.4010    96.4650     8.4570 s4         1 C74       0.627600
     20 O2          50.7370    96.8910     7.8910 o          1 C74      -0.378900
     21 O3          48.9740    97.1790     9.7190 o          1 C74      -0.378900
     22 N4          45.3410   101.8330     4.4540 nh         1 C74      -0.700300
     23 C14         44.8570   102.5180     2.0700 c6         1 C74       0.136100
     24 O4          44.7400   101.1170     1.7240 os         1 C74      -0.414000
     25 C16         45.0950   100.4080     4.0610 c6         1 C74       0.156800
     26 H1          43.3030   101.6000     9.7420 hn         1 C74       0.410000
     27 H2          45.1910    99.8370     9.5450 h4         1 C74       0.264000
     28 H3          46.2100    98.2370     8.0440 ha         1 C74       0.144000
     29 H4          49.7820    98.1800     5.6450 ha         1 C74       0.175000
     30 H6          45.8020   103.7580     3.5950 h1         1 C74       0.085450
     31 H7          43.1800   100.6690     3.0370 h1         1 C74       0.075450
     32 H8          44.1190    99.2700     2.4680 h1         1 C74       0.075450
     33 H9          42.2330   104.5610     6.0200 h5         1 C74       0.088100
     34 H10         49.3900   100.5610     4.9920 ha         1 C74       0.162000
     35 H11         47.4300   101.7860     5.8830 ha         1 C74       0.146000
     36 H14         45.2690   103.0690     1.2130 h1         1 C74       0.075450
     37 H15         43.8580   102.9240     2.2860 h1         1 C74       0.075450
     38 H16         44.6170    99.8520     4.8800 h1         1 C74       0.085450
     39 H17         46.0500    99.9030     3.8550 h1         1 C74       0.085450
     40 H5          46.8100   102.4370     3.0220 h1         1 C74       0.085450
@<TRIPOS>BOND
     1     1    11 ar  
     2     1    12 ar  
     3     2     4 1   
     4     2    14 1   
     5     2    26 1   
     6     3     5 1   
     7     3    11 ar  
     8     3    14 ar  
     9     4     5 2   
    10     4    27 1   
    11     5     6 1   
    12     6     7 ar  
    13     6    17 ar  
    14     7    15 ar  
    15     7    28 1   
    16     8    15 ar  
    17     8    16 ar  
    18     8    29 1   
    19     9    22 1   
    20     9    23 1   
    21     9    30 1   
    22     9    40 1   
    23    10    24 1   
    24    10    25 1   
    25    10    31 1   
    26    10    32 1   
    27    11    22 1   
    28    12    13 ar  
    29    12    33 1   
    30    13    14 ar  
    31    15    18 1   
    32    16    17 ar  
    33    16    34 1   
    34    17    35 1   
    35    18    19 1   
    36    19    20 1   
    37    19    21 1   
    38    22    25 1   
    39    23    24 1   
    40    23    36 1   
    41    23    37 1   
    42    25    38 1   
    43    25    39 1   
@<TRIPOS>SUBSTRUCTURE
     1 C74         1 TEMP              0 ****  ****    0 ROOT
