@<TRIPOS>MOLECULE
C75
   37    39     1     0     0
SMALL
abcg2


@<TRIPOS>ATOM
      1 O4          -4.8790    -2.0530    -1.0960 o          1 C75      -0.542500
      2 S2          -5.0240    -0.8170    -0.3400 sy         1 C75       1.137600
      3 O3          -6.0260     0.1520    -0.7670 o          1 C75      -0.542500
      4 N6          -5.2150    -1.2670     1.2340 n7         1 C75      -0.878300
      5 C61         -5.5890    -0.2360     2.1930 c3         1 C75       0.179100
      6 C16         -3.4660     0.0180    -0.2830 ca         1 C75      -0.262500
      7 C15         -2.3070    -0.7350    -0.1510 ca         1 C75      -0.011500
      8 C14         -1.0810    -0.0990    -0.1180 ca         1 C75      -0.111500
      9 C13         -1.0030     1.2960    -0.2130 ca         1 C75      -0.073500
     10 C18         -2.1820     2.0340    -0.3440 ca         1 C75      -0.111500
     11 C17         -3.4110     1.4010    -0.3830 ca         1 C75      -0.011500
     12 C4           0.2720     1.9800    -0.1750 cc         1 C75       0.197500
     13 O2           1.3850     1.2260    -0.0880 os         1 C75      -0.223000
     14 C3           0.6210     3.3030    -0.2050 cd         1 C75      -0.163000
     15 C2           2.0290     3.3490    -0.1300 cd         1 C75      -0.133000
     16 C1           2.4550     2.0500    -0.0610 cc         1 C75       0.156800
     17 C6           3.7560     1.4840     0.0240 ce         1 C75      -0.157800
     18 C7           4.0580     0.1760     0.0710 cd         1 C75      -0.097600
     19 S1           2.9460    -1.1750     0.0400 ss         1 C75      -0.212800
     20 C9           4.2800    -2.3430     0.1350 cc         1 C75       0.518800
     21 N3           4.2060    -3.5990     0.1530 n2         1 C75      -0.784100
     22 N2           5.4750    -1.6620     0.1890 ns         1 C75      -0.433400
     23 C8           5.4590    -0.2980     0.1590 c          1 C75       0.587200
     24 O1           6.4410     0.4090     0.1990 o          1 C75      -0.500000
     25 H6          -5.7760    -2.1120     1.2960 hn         1 C75       0.487000
     26 H611        -5.6170    -0.6980     3.1770 h1         1 C75       0.050700
     27 H612        -4.8290     0.5440     2.2190 h1         1 C75       0.050700
     28 H613        -6.5590     0.2190     1.9900 h1         1 C75       0.050700
     29 H15         -2.3480    -1.8130    -0.0770 ha         1 C75       0.139500
     30 H17         -4.3110     1.9900    -0.4930 ha         1 C75       0.139500
     31 H14         -0.1890    -0.7000    -0.0170 ha         1 C75       0.128000
     32 H18         -2.1480     3.1120    -0.4220 ha         1 C75       0.128000
     33 H3          -0.0510     4.1430    -0.2690 ha         1 C75       0.148000
     34 H2           2.6590     4.2240    -0.1270 ha         1 C75       0.151000
     35 HA           4.5750     2.1920     0.0510 ha         1 C75       0.220000
     36 H3N          3.2520    -3.9370     0.1050 hn         1 C75       0.421400
     37 H2N          6.3420    -2.1790     0.2500 hn         1 C75       0.357500
@<TRIPOS>BOND
     1     1     2 2   
     2     2     3 2   
     3     2     4 1   
     4     2     6 1   
     5     4     5 1   
     6     4    25 1   
     7     5    26 1   
     8     5    27 1   
     9     5    28 1   
    10     6     7 ar  
    11     6    11 ar  
    12     7     8 ar  
    13     7    29 1   
    14     8     9 ar  
    15     8    31 1   
    16     9    10 ar  
    17     9    12 1   
    18    10    11 ar  
    19    10    32 1   
    20    11    30 1   
    21    12    13 1   
    22    12    14 2   
    23    13    16 1   
    24    14    15 1   
    25    14    33 1   
    26    15    16 2   
    27    15    34 1   
    28    16    17 1   
    29    17    18 2   
    30    17    35 1   
    31    18    19 1   
    32    18    23 1   
    33    19    20 1   
    34    20    21 2   
    35    20    22 1   
    36    21    36 1   
    37    22    23 1   
    38    22    37 1   
    39    23    24 2   
@<TRIPOS>SUBSTRUCTURE
     1 C75         1 TEMP              0 ****  ****    0 ROOT
