@<TRIPOS>MOLECULE
C75
   37    39     1     0     0
SMALL
No Charge or Current Charge


@<TRIPOS>ATOM
      1 O4          -5.2980    -2.0070    -1.1520 o          1 C75      -0.542500
      2 S2          -5.3860    -0.7350    -0.4300 sy         1 C75       1.137600
      3 O3          -6.4000     0.2770    -0.7340 o          1 C75      -0.542500
      4 N6          -5.6410    -1.1610     1.1640 n7         1 C75      -0.878300
      5 C61         -5.2910    -0.1810     2.2120 c3         1 C75       0.179100
      6 C16         -3.7500     0.0150    -0.3590 ca         1 C75      -0.262500
      7 C15         -2.6050    -0.8010    -0.2820 ca         1 C75      -0.011500
      8 C14         -1.3280    -0.2200    -0.2190 ca         1 C75      -0.111500
      9 C13         -1.1680     1.1820    -0.2300 ca         1 C75      -0.073500
     10 C18         -2.3230     1.9930    -0.3060 ca         1 C75      -0.111500
     11 C17         -3.6030     1.4170    -0.3700 ca         1 C75      -0.011500
     12 C4           0.1810     1.7620    -0.1620 cc         1 C75       0.197500
     13 O2           1.3140     0.9890    -0.0830 os         1 C75      -0.223000
     14 C3           0.4970     3.0930    -0.1670 cd         1 C75      -0.163000
     15 C2           1.9050     3.1520    -0.0860 cd         1 C75      -0.133000
     16 C1           2.3770     1.8640    -0.0370 cc         1 C75       0.156800
     17 C6           3.7490     1.3730     0.0510 ce         1 C75      -0.157800
     18 C7           4.3150     0.1140     0.1060 cd         1 C75      -0.097600
     19 S1           3.3310    -1.3680     0.0750 ss         1 C75      -0.212800
     20 C9           4.8190    -2.2860     0.1770 cc         1 C75       0.518800
     21 N3           4.7910    -3.5690     0.1980 n2         1 C75      -0.784100
     22 N2           5.9230    -1.5110     0.2270 ns         1 C75      -0.433400
     23 C8           5.7710    -0.1660     0.1950 c          1 C75       0.587200
     24 O1           6.6860     0.6410     0.2340 o          1 C75      -0.500000
     25 H6          -6.6520    -1.2920     1.1570 hn         1 C75       0.487000
     26 H611        -5.6040    -0.5450     3.1990 h1         1 C75       0.050700
     27 H612        -4.2060    -0.0110     2.2550 h1         1 C75       0.050700
     28 H613        -5.7840     0.7860     2.0380 h1         1 C75       0.050700
     29 H15         -2.7030    -1.8860    -0.2670 ha         1 C75       0.139500
     30 H17         -4.4770     2.0650    -0.4260 ha         1 C75       0.139500
     31 H14         -0.4580    -0.8700    -0.1590 ha         1 C75       0.128000
     32 H18         -2.2430     3.0760    -0.3160 ha         1 C75       0.128000
     33 H3          -0.1830     3.9350    -0.2210 ha         1 C75       0.148000
     34 H2           2.5120     4.0520    -0.0670 ha         1 C75       0.151000
     35 HA           4.4770     2.1850     0.0790 ha         1 C75       0.220000
     36 H3N          3.8070    -3.8740     0.1470 hn         1 C75       0.421400
     37 H2N          6.8470    -1.9090     0.2880 hn         1 C75       0.357500
@<TRIPOS>BOND
     1     1     2 2   
     2     2     3 2   
     3     2     4 1   
     4     2     6 1   
     5     4     5 1   
     6     4    25 1   
     7     5    26 1   
     8     5    27 1   
     9     5    28 1   
    10     6     7 ar  
    11     6    11 ar  
    12     7     8 ar  
    13     7    29 1   
    14     8     9 ar  
    15     8    31 1   
    16     9    10 ar  
    17     9    12 1   
    18    10    11 ar  
    19    10    32 1   
    20    11    30 1   
    21    12    13 1   
    22    12    14 2   
    23    13    16 1   
    24    14    15 1   
    25    14    33 1   
    26    15    16 2   
    27    15    34 1   
    28    16    17 1   
    29    17    18 2   
    30    17    35 1   
    31    18    19 1   
    32    18    23 1   
    33    19    20 1   
    34    20    21 2   
    35    20    22 1   
    36    21    36 1   
    37    22    23 1   
    38    22    37 1   
    39    23    24 2   
@<TRIPOS>SUBSTRUCTURE
     1 C75         1 TEMP              0 ****  ****    0 ROOT
