@<TRIPOS>MOLECULE
C76
   30    30     1     0     0
SMALL
bcc


@<TRIPOS>ATOM
      1 C1          28.2230    78.1290   106.1060 c6         1 C76       0.338900
      2 C2          29.6740    77.7370   106.4000 c6         1 C76       0.079700
      3 C3          29.7150    76.5250   107.3240 c6         1 C76       0.139100
      4 C4          28.8640    76.7940   108.5610 c6         1 C76       0.082100
      5 C5          27.4520    77.1980   108.1240 c6         1 C76       0.134100
      6 C6          26.5090    77.4760   109.2730 c3         1 C76       0.143400
      7 C8          31.8810    77.8410   103.3000 c3         1 C76       0.579900
      8 N2          30.3790    77.4600   105.1710 ns         1 C76      -0.537900
      9 O1          28.2250    79.2920   105.3730 oh         1 C76      -0.557800
     10 O3          31.0560    76.2720   107.6430 oh         1 C76      -0.580800
     11 O4          28.8540    75.6120   109.3280 oh         1 C76      -0.605800
     12 O5          27.5400    78.3540   107.3120 os         1 C76      -0.418600
     13 O6          27.0630    78.4530   110.1210 oh         1 C76      -0.588800
     14 O7          31.6940    79.3200   105.1250 o          1 C76      -0.526100
     15 F           33.2090    77.8510   103.3650 f          1 C76      -0.226300
     16 F01         31.5000    76.6230   102.9110 f          1 C76      -0.226300
     17 F02         31.5090    78.7040   102.3540 f          1 C76      -0.226300
     18 H1          27.7330    77.3040   105.5580 h2         1 C76       0.010700
     19 H2          30.1640    78.5790   106.8970 h1         1 C76       0.125700
     20 H3          29.2690    75.6670   106.7930 h1         1 C76       0.033700
     21 H4          29.3190    77.6240   109.1160 h1         1 C76       0.083700
     22 H5          27.0130    76.3650   107.5510 h1         1 C76       0.043700
     23 H6          25.5430    77.7910   108.8600 h1         1 C76       0.033200
     24 H7          26.3310    76.5290   109.7970 h1         1 C76       0.033200
     25 H8          30.1240    76.6180   104.6760 hn         1 C76       0.328500
     26 H9          27.3910    79.3730   104.8970 ho         1 C76       0.422000
     27 H10         31.0850    75.4880   108.2030 ho         1 C76       0.423000
     28 H11         28.7670    75.8450   110.2560 ho         1 C76       0.420000
     29 H12         26.4760    78.5630   110.8740 ho         1 C76       0.408000
     30 C7          31.2890    78.2780   104.6510 c          1 C76       0.630100
@<TRIPOS>BOND
     1     1     2 1   
     2     1     9 1   
     3     1    12 1   
     4     1    18 1   
     5     2     3 1   
     6     2     8 1   
     7     2    19 1   
     8     3     4 1   
     9     3    10 1   
    10     3    20 1   
    11     4     5 1   
    12     4    11 1   
    13     4    21 1   
    14     5     6 1   
    15     5    12 1   
    16     5    22 1   
    17     6    13 1   
    18     6    23 1   
    19     6    24 1   
    20     7    15 1   
    21     7    16 1   
    22     7    17 1   
    23     7    30 1   
    24     8    25 1   
    25     8    30 1   
    26     9    26 1   
    27    10    27 1   
    28    11    28 1   
    29    13    29 1   
    30    14    30 2   
@<TRIPOS>SUBSTRUCTURE
     1 C76         1 TEMP              0 ****  ****    0 ROOT
