@<TRIPOS>MOLECULE
C76
   30    30     1     0     0
SMALL
No Charge or Current Charge


@<TRIPOS>ATOM
      1 C1          28.2110    77.9710   106.0180 c6         1 C76       0.385300
      2 C2          29.7170    77.7090   106.3490 c6         1 C76       0.079700
      3 C3          29.7790    76.4950   107.3220 c6         1 C76       0.162300
      4 C4          28.9030    76.7460   108.5840 c6         1 C76       0.105300
      5 C5          27.4440    77.0830   108.1310 c6         1 C76       0.157300
      6 C6          26.4950    77.4480   109.3220 c3         1 C76       0.166600
      7 C8          31.9560    77.9060   103.1440 c3         1 C76       0.216000
      8 N2          30.5370    77.4640   105.1340 ns         1 C76      -0.470900
      9 O1          28.0310    79.1430   105.2520 oh         1 C76      -0.620000
     10 O3          31.1280    76.2110   107.7230 oh         1 C76      -0.643000
     11 O4          28.9570    75.5910   109.4550 oh         1 C76      -0.728000
     12 O5          27.4700    78.2090   107.2170 os         1 C76      -0.465000
     13 O6          26.9190    78.6090   110.0650 oh         1 C76      -0.711000
     14 O7          31.2130    79.6060   104.7500 o          1 C76      -0.526100
     15 F           32.9130    77.0070   103.4780 f          1 C76      -0.105000
     16 F01         31.1060    77.2910   102.2870 f          1 C76      -0.105000
     17 F02         32.5640    78.9040   102.4590 f          1 C76      -0.105000
     18 H1          27.7830    77.1100   105.4840 h2         1 C76       0.010700
     19 H2          30.1090    78.5940   106.8720 h1         1 C76       0.125700
     20 H3          29.3690    75.6190   106.7960 h1         1 C76       0.033700
     21 H4          29.3050    77.6300   109.1040 h1         1 C76       0.083700
     22 H5          27.0150    76.2160   107.6070 h1         1 C76       0.043700
     23 H6          25.4930    77.6170   108.9060 h1         1 C76       0.033200
     24 H7          26.4200    76.5780   109.9880 h1         1 C76       0.033200
     25 H8          30.6180    76.5100   104.7990 hn         1 C76       0.328500
     26 H9          27.3230    79.6170   105.7350 ho         1 C76       0.461000
     27 H10         31.0320    75.6280   108.5110 ho         1 C76       0.462000
     28 H11         28.6490    75.8800   110.3470 ho         1 C76       0.519000
     29 H12         26.1840    78.8440   110.6770 ho         1 C76       0.507000
     30 C7          31.2080    78.4290   104.4040 c          1 C76       0.563100
@<TRIPOS>BOND
     1     1     2 1   
     2     1     9 1   
     3     1    12 1   
     4     1    18 1   
     5     2     3 1   
     6     2     8 1   
     7     2    19 1   
     8     3     4 1   
     9     3    10 1   
    10     3    20 1   
    11     4     5 1   
    12     4    11 1   
    13     4    21 1   
    14     5     6 1   
    15     5    12 1   
    16     5    22 1   
    17     6    13 1   
    18     6    23 1   
    19     6    24 1   
    20     7    15 1   
    21     7    16 1   
    22     7    17 1   
    23     7    30 1   
    24     8    25 1   
    25     8    30 1   
    26     9    26 1   
    27    10    27 1   
    28    11    28 1   
    29    13    29 1   
    30    14    30 2   
@<TRIPOS>SUBSTRUCTURE
     1 C76         1 TEMP              0 ****  ****    0 ROOT
