@<TRIPOS>MOLECULE
C77
   74    80     1     0     0
SMALL
No Charge or Current Charge


@<TRIPOS>ATOM
      1 N1          -8.8810     2.1640     2.7060 nb         1 C77      -0.302000
      2 C2          -8.2600     0.9840     2.9410 ca         1 C77       0.188900
      3 N3          -7.2640     0.4340     2.2070 nb         1 C77      -0.224000
      4 C4          -6.8600     1.1460     1.1360 ca         1 C77       0.141500
      5 C5          -7.4230     2.3540     0.8090 ca         1 C77      -0.101600
      6 C6          -8.4580     2.8460     1.6310 ca         1 C77       0.455900
      7 N6          -9.0790     4.0330     1.3950 nv         1 C77      -1.062900
      8 N7          -6.8520     2.9170    -0.3270 nc         1 C77      -0.544100
      9 C8          -5.9300     1.9940    -0.6620 cd         1 C77       0.405700
     10 N9          -5.8930     0.8850     0.2020 na         1 C77      -0.305300
     11 CAA         -6.4790    -4.2200    -1.5690 c3         1 C77      -0.108600
     12 CAB         -5.2500    -4.8800     0.5700 c3         1 C77      -0.108600
     13 OAD         10.7520    -1.3590     3.2290 o          1 C77      -0.581000
     14 CAG         -0.0430    -0.4520    -0.6070 cc         1 C77      -0.218000
     15 CAH          4.5410     0.7970     0.5090 c3         1 C77      -0.074400
     16 CAI          3.3000     0.6070    -0.3900 c3         1 C77      -0.074400
     17 CAJ          5.8710     0.5570    -0.2390 c3         1 C77      -0.076400
     18 CAL          7.1140     0.7470     0.6610 c3         1 C77      -0.058400
     19 CAM         10.4530    -0.7540    -1.0570 c5         1 C77       0.035600
     20 CAN         -2.0930    -0.9010    -2.0530 c3         1 C77       0.072600
     21 NAR          0.3170     1.6100    -1.4030 nd         1 C77      -0.358000
     22 NAS         -0.7380     1.1620    -2.0310 nc         1 C77      -0.181800
     23 NAT         11.4210    -0.7240     1.1420 ns         1 C77      -0.527900
     24 NAU          9.6680     0.2650     2.0480 ns         1 C77      -0.510900
     25 OAV         -3.8220     0.0640    -0.5990 os         1 C77      -0.421000
     26 OAW         -4.2220    -3.3760    -1.0430 os         1 C77      -0.461000
     27 OAX         -5.9220    -2.5760     0.1850 os         1 C77      -0.454000
     28 SAY          8.7170    -1.2040    -0.5980 ss         1 C77      -0.401000
     29 CAZ         10.6220    -0.6760     2.2320 c          1 C77       0.615000
     30 CBA          0.7650     0.6450    -0.5260 cd         1 C77       0.212300
     31 CBE         -3.2050    -1.1670    -1.0160 c5         1 C77       0.118300
     32 CBF          8.4690     0.5530    -0.0730 c5         1 C77       0.074300
     33 CBG         -4.3950    -2.0240    -1.5350 c5         1 C77       0.110300
     34 CBH         -5.6140    -1.4850    -0.7180 c5         1 C77       0.098300
     35 CBI         -5.0330    -0.2880     0.0950 c5         1 C77       0.315300
     36 NBJ         -0.9700    -0.0930    -1.5530 na         1 C77       0.124800
     37 CBL         -5.4780    -3.7710    -0.4720 c5         1 C77       0.395000
     38 CBM         10.9910     0.1840     0.0760 c5         1 C77       0.105700
     39 CBN          9.7610     0.9280     0.7420 c5         1 C77       0.095700
     40 H2          -8.5950     0.4190     3.8090 h5         1 C77       0.048100
     41 HN6         -9.5860     4.4660     2.1630 hn         1 C77       0.508000
     42 HN6A        -8.6330     4.6620     0.7310 hn         1 C77       0.508000
     43 H8          -5.2640     2.0600    -1.5140 h5         1 C77       0.057800
     44 HAA         -7.4610    -4.4350    -1.1320 hc         1 C77       0.055533
     45 HAAA        -6.6240    -3.4650    -2.3500 hc         1 C77       0.055533
     46 HAAB        -6.1290    -5.1350    -2.0610 hc         1 C77       0.055533
     47 HAB         -4.8410    -5.7820     0.1010 hc         1 C77       0.055533
     48 HABA        -4.5450    -4.5510     1.3420 hc         1 C77       0.055533
     49 HABB        -6.1890    -5.1530     1.0650 hc         1 C77       0.055533
     50 HAG         -0.0310    -1.4040    -0.0940 h4         1 C77       0.164000
     51 HAH          4.5360     1.8150     0.9190 hc         1 C77       0.036200
     52 HAHA         4.4780     0.1090     1.3610 hc         1 C77       0.036200
     53 HAI          3.3620     1.2950    -1.2430 hc         1 C77       0.049700
     54 HAIA         3.3020    -0.4110    -0.8000 hc         1 C77       0.049700
     55 HAJ          5.8690    -0.4600    -0.6500 hc         1 C77       0.048200
     56 HAJA         5.9350     1.2460    -1.0910 hc         1 C77       0.048200
     57 HAK          1.9110     0.1680     1.2150 hc         1 C77       0.049700
     58 HAKA         1.9610     1.8650     0.7640 hc         1 C77       0.049700
     59 HAL          7.0820     1.7580     1.0850 hc         1 C77       0.050700
     60 HALA         7.0410     0.0520     1.5060 hc         1 C77       0.050700
     61 HAM         11.0700    -1.6520    -1.1950 h1         1 C77       0.077700
     62 HAMA        10.4300    -0.2170    -2.0150 h1         1 C77       0.077700
     63 HAN         -1.6920    -1.8630    -2.3930 h1         1 C77       0.077200
     64 HANA        -2.5320    -0.3980    -2.9240 h1         1 C77       0.077200
     65 HNAT        12.1900    -1.3810     1.1160 hn         1 C77       0.344500
     66 HNAU         8.9870     0.4350     2.7760 hn         1 C77       0.336500
     67 HBE         -2.7520    -1.6400    -0.1320 h1         1 C77       0.085700
     68 HBF          8.4420     1.1690    -0.9820 h1         1 C77       0.068700
     69 HBG         -4.5460    -1.9980    -2.6230 h1         1 C77       0.091700
     70 HBH         -6.4790    -1.2250    -1.3440 h1         1 C77       0.092700
     71 HBI         -4.7970    -0.6090     1.1190 h2         1 C77       0.139700
     72 HBM         11.7880     0.8610    -0.2620 h1         1 C77       0.062700
     73 HBN          9.9110     2.0130     0.8310 h1         1 C77       0.059700
     74 CAK          1.9690     0.8470     0.3560 c3         1 C77      -0.089700
@<TRIPOS>BOND
     1     1     2 ar  
     2     1     6 ar  
     3     2     3 ar  
     4     2    40 1   
     5     3     4 ar  
     6     4     5 ar  
     7     4    10 1   
     8     5     6 ar  
     9     5     8 1   
    10     6     7 1   
    11     7    41 1   
    12     7    42 1   
    13     8     9 2   
    14     9    10 1   
    15     9    43 1   
    16    10    35 1   
    17    11    37 1   
    18    11    44 1   
    19    11    45 1   
    20    11    46 1   
    21    12    37 1   
    22    12    47 1   
    23    12    48 1   
    24    12    49 1   
    25    13    29 2   
    26    14    30 2   
    27    14    36 1   
    28    14    50 1   
    29    15    16 1   
    30    15    17 1   
    31    15    51 1   
    32    15    52 1   
    33    16    53 1   
    34    16    54 1   
    35    16    74 1   
    36    17    18 1   
    37    17    55 1   
    38    17    56 1   
    39    18    32 1   
    40    18    59 1   
    41    18    60 1   
    42    19    28 1   
    43    19    38 1   
    44    19    61 1   
    45    19    62 1   
    46    20    31 1   
    47    20    36 1   
    48    20    63 1   
    49    20    64 1   
    50    21    22 2   
    51    21    30 1   
    52    22    36 1   
    53    23    29 1   
    54    23    38 1   
    55    23    65 1   
    56    24    29 1   
    57    24    39 1   
    58    24    66 1   
    59    25    31 1   
    60    25    35 1   
    61    26    33 1   
    62    26    37 1   
    63    27    34 1   
    64    27    37 1   
    65    28    32 1   
    66    30    74 1   
    67    31    33 1   
    68    31    67 1   
    69    32    39 1   
    70    32    68 1   
    71    33    34 1   
    72    33    69 1   
    73    34    35 1   
    74    34    70 1   
    75    35    71 1   
    76    38    39 1   
    77    38    72 1   
    78    39    73 1   
    79    57    74 1   
    80    58    74 1   
@<TRIPOS>SUBSTRUCTURE
     1 C77         1 TEMP              0 ****  ****    0 ROOT
