@<TRIPOS>MOLECULE
C77
   74    80     1     0     0
SMALL
bcc


@<TRIPOS>ATOM
      1 N1          -7.8200     3.7460     1.4350 nb         1 C77      -0.828000
      2 C2          -7.6190     2.6450     2.1530 ca         1 C77       0.714900
      3 N3          -6.9410     1.5600     1.8210 nb         1 C77      -0.750000
      4 C4          -6.4220     1.6590     0.6000 ca         1 C77       0.469800
      5 C5          -6.5420     2.7370    -0.2610 ca         1 C77      -0.232200
      6 C6          -7.2920     3.8310     0.2080 ca         1 C77       0.784200
      7 N6          -7.4970     4.9290    -0.5180 nv         1 C77      -0.952500
      8 N7          -5.8790     2.4960    -1.4370 nc         1 C77      -0.544100
      9 C8          -5.3770     1.3080    -1.2880 cd         1 C77       0.405700
     10 N9          -5.6690     0.7410    -0.0750 na         1 C77      -0.276000
     11 CAA         -6.8350    -4.6070    -1.0730 c3         1 C77      -0.108600
     12 CAB         -4.8960    -4.9540     0.5020 c3         1 C77      -0.108600
     13 OAD         11.2290    -2.2310     0.0550 o          1 C77      -0.656500
     14 CAG         -0.1410    -1.2920    -0.2030 cc         1 C77      -0.250600
     15 CAH          4.4220    -0.1470     1.1240 c3         1 C77      -0.074400
     16 CAI          3.0620     0.1600     0.5140 c3         1 C77      -0.074400
     17 CAJ          5.5520     0.6440     0.4770 c3         1 C77      -0.076400
     18 CAL          6.9270     0.2130     0.9740 c3         1 C77      -0.058400
     19 CAM          9.7970     1.9050    -1.2020 c5         1 C77      -0.012300
     20 CAN         -2.3410    -1.0200    -1.3800 c3         1 C77       0.043300
     21 NAR         -0.0320     0.7860     0.4960 nd         1 C77      -0.358000
     22 NAS         -1.1170     0.6740    -0.1890 nc         1 C77      -0.181800
     23 NAT         11.2090     0.0170    -0.4440 ns         1 C77      -0.594900
     24 NAU          9.6840    -0.7530     0.9190 ns         1 C77      -0.577900
     25 OAV         -3.8830    -0.6800     0.4380 os         1 C77      -0.374600
     26 OAW         -4.7390    -3.4980    -1.4180 os         1 C77      -0.414600
     27 OAX         -5.9890    -2.8420     0.3510 os         1 C77      -0.407600
     28 SAY          8.2040     1.0620    -1.3630 ss         1 C77      -0.305200
     29 CAZ         10.7620    -1.1070     0.1660 c          1 C77       0.824500
     30 CBA          0.6130    -0.4040     0.5210 cd         1 C77       0.277600
     31 CBE         -3.4120    -1.6370    -0.4980 c5         1 C77       0.095100
     32 CBF          8.0610     1.0760     0.4560 c5         1 C77       0.026400
     33 CBG         -4.6320    -2.1090    -1.3130 c5         1 C77       0.087100
     34 CBH         -5.8090    -1.6950    -0.4400 c5         1 C77       0.075100
     35 CBI         -5.2760    -0.5600     0.4250 c5         1 C77       0.262800
     36 NBJ         -1.1960    -0.5710    -0.6220 na         1 C77       0.103400
     37 CBL         -5.6210    -3.9810    -0.4060 c5         1 C77       0.348600
     38 CBM         10.5210     1.2150    -0.0430 c5         1 C77       0.105700
     39 CBN          9.4550     0.6700     0.9560 c5         1 C77       0.095700
     40 H2          -8.0730     2.6430     3.1380 h5         1 C77       0.048100
     41 HN6         -8.0360     5.6920    -0.1460 hn         1 C77       0.452800
     42 HN6A        -7.1080     5.0240    -1.4390 hn         1 C77       0.452800
     43 H8          -4.7840     0.8030    -2.0360 h5         1 C77       0.057800
     44 HAA         -7.5230    -4.9970    -0.3230 hc         1 C77       0.055533
     45 HAAA        -7.3720    -3.8820    -1.6870 hc         1 C77       0.055533
     46 HAAB        -6.5330    -5.4360    -1.7120 hc         1 C77       0.055533
     47 HAB         -4.5830    -5.8330    -0.0600 hc         1 C77       0.055533
     48 HABA        -4.0120    -4.4950     0.9470 hc         1 C77       0.055533
     49 HABB        -5.5500    -5.2900     1.3060 hc         1 C77       0.055533
     50 HAG         -0.0020    -2.3320    -0.4470 h4         1 C77       0.182000
     51 HAH          4.4020     0.0570     2.2000 hc         1 C77       0.036200
     52 HAHA         4.6220    -1.2200     1.0220 hc         1 C77       0.036200
     53 HAI          2.8610     1.2340     0.5750 hc         1 C77       0.049700
     54 HAIA         3.0810    -0.0880    -0.5520 hc         1 C77       0.049700
     55 HAJ          5.4990     0.5190    -0.6100 hc         1 C77       0.048200
     56 HAJA         5.4090     1.7120     0.6680 hc         1 C77       0.048200
     57 HAK          2.1570    -1.6780     1.1870 hc         1 C77       0.049700
     58 HAKA         1.8600    -0.3110     2.2400 hc         1 C77       0.049700
     59 HAL          6.9460     0.2610     2.0690 hc         1 C77       0.050700
     60 HALA         7.1010    -0.8310     0.7040 hc         1 C77       0.050700
     61 HAM         10.3600     1.8470    -2.1330 h1         1 C77       0.077700
     62 HAMA         9.6310     2.9590    -0.9680 h1         1 C77       0.077700
     63 HAN         -2.0040    -1.7540    -2.1120 h1         1 C77       0.077200
     64 HANA        -2.7270    -0.1610    -1.9280 h1         1 C77       0.077200
     65 HNAT        12.0440     0.0240    -1.0040 hn         1 C77       0.344500
     66 HNAU         9.3610    -1.3600     1.6530 hn         1 C77       0.336500
     67 HBE         -2.9810    -2.4850     0.0460 h1         1 C77       0.085700
     68 HBF          7.8910     2.1150     0.7590 h1         1 C77       0.068700
     69 HBG         -4.6480    -1.6720    -2.3160 h1         1 C77       0.091700
     70 HBH         -6.7150    -1.4150    -0.9870 h1         1 C77       0.092700
     71 HBI         -5.6710    -0.6210     1.4420 h2         1 C77       0.139700
     72 HBM         11.2050     1.9210     0.4350 h1         1 C77       0.062700
     73 HBN          9.6050     1.0650     1.9640 h1         1 C77       0.059700
     74 CAK          1.9270    -0.6100     1.1900 c3         1 C77      -0.089700
@<TRIPOS>BOND
     1     1     2 ar  
     2     1     6 ar  
     3     2     3 ar  
     4     2    40 1   
     5     3     4 ar  
     6     4     5 ar  
     7     4    10 1   
     8     5     6 ar  
     9     5     8 1   
    10     6     7 1   
    11     7    41 1   
    12     7    42 1   
    13     8     9 2   
    14     9    10 1   
    15     9    43 1   
    16    10    35 1   
    17    11    37 1   
    18    11    44 1   
    19    11    45 1   
    20    11    46 1   
    21    12    37 1   
    22    12    47 1   
    23    12    48 1   
    24    12    49 1   
    25    13    29 2   
    26    14    30 2   
    27    14    36 1   
    28    14    50 1   
    29    15    16 1   
    30    15    17 1   
    31    15    51 1   
    32    15    52 1   
    33    16    53 1   
    34    16    54 1   
    35    16    74 1   
    36    17    18 1   
    37    17    55 1   
    38    17    56 1   
    39    18    32 1   
    40    18    59 1   
    41    18    60 1   
    42    19    28 1   
    43    19    38 1   
    44    19    61 1   
    45    19    62 1   
    46    20    31 1   
    47    20    36 1   
    48    20    63 1   
    49    20    64 1   
    50    21    22 2   
    51    21    30 1   
    52    22    36 1   
    53    23    29 1   
    54    23    38 1   
    55    23    65 1   
    56    24    29 1   
    57    24    39 1   
    58    24    66 1   
    59    25    31 1   
    60    25    35 1   
    61    26    33 1   
    62    26    37 1   
    63    27    34 1   
    64    27    37 1   
    65    28    32 1   
    66    30    74 1   
    67    31    33 1   
    68    31    67 1   
    69    32    39 1   
    70    32    68 1   
    71    33    34 1   
    72    33    69 1   
    73    34    35 1   
    74    34    70 1   
    75    35    71 1   
    76    38    39 1   
    77    38    72 1   
    78    39    73 1   
    79    57    74 1   
    80    58    74 1   
@<TRIPOS>SUBSTRUCTURE
     1 C77         1 TEMP              0 ****  ****    0 ROOT
