@<TRIPOS>MOLECULE
C78
   86    89     1     0     0
SMALL
No Charge or Current Charge


@<TRIPOS>ATOM
      1 N1          -4.2390     0.0180    -7.1210 nv         1 C78      -1.078000
      2 C2          -4.6570     0.3490    -5.8610 ca         1 C78       0.289000
      3 C3          -6.0240     0.3230    -5.5510 ca         1 C78      -0.183000
      4 C4          -6.4620     0.6600    -4.2590 ca         1 C78      -0.088000
      5 C5          -5.5280     1.0260    -3.2760 ca         1 C78      -0.141000
      6 C7          -4.1520     1.0580    -3.5790 ca         1 C78      -0.050300
      7 C6          -3.7240     0.7160    -4.8780 ca         1 C78      -0.142000
      8 C8          -3.1360     1.4550    -2.5140 c3         1 C78       0.228900
      9 O9          -2.6090     0.2600    -1.9160 os         1 C78      -0.460100
     10 C10         -1.6910     0.4100    -0.9220 c          1 C78       0.661100
     11 O11         -1.2930     1.4760    -0.4820 o          1 C78      -0.552000
     12 N12         -1.3270    -0.8350    -0.4840 ns         1 C78      -0.462900
     13 C13         -0.3410    -1.1500     0.5810 c3         1 C78       0.060700
     14 C14          1.0230    -0.4200     0.4150 c3         1 C78       0.001900
     15 C15          1.6400    -0.5930    -0.9710 ca         1 C78      -0.228300
     16 C16          1.8270     0.5200    -1.8120 ca         1 C78      -0.089000
     17 C17          2.4010     0.3610    -3.0860 ca         1 C78      -0.185000
     18 C18          2.0370    -1.8680    -1.4150 ca         1 C78      -0.089000
     19 C19          2.6090    -2.0260    -2.6880 ca         1 C78      -0.185000
     20 C20          2.7980    -0.9180    -3.5320 ca         1 C78       0.306100
     21 C21         -0.9380    -0.9540     2.0060 c          1 C78       0.568100
     22 O22         -1.9720    -0.3400     2.2340 o          1 C78      -0.586100
     23 O23          3.3680    -1.1470    -4.7590 os         1 C78      -0.431500
     24 P24          3.7350    -0.0750    -5.9060 p5         1 C78       1.248900
     25 O25          4.3590    -0.7920    -7.0540 o          1 C78      -0.896833
     26 O26          4.7010     0.9300    -5.3790 o          1 C78      -0.896833
     27 O27          2.5020     0.6150    -6.3770 o          1 C78      -0.896833
     28 N28         -0.2060    -1.5540     3.0180 ns         1 C78      -0.525900
     29 C29         -0.5500    -1.6120     4.4720 c6         1 C78       0.056400
     30 C30          0.6320    -2.3650     5.1590 c6         1 C78      -0.083400
     31 C31          0.7680    -3.8420     4.6930 c6         1 C78      -0.075400
     32 C32         -0.5600    -4.6160     4.8750 c6         1 C78      -0.074400
     33 C33         -1.7310    -3.9010     4.1600 c6         1 C78      -0.075400
     34 C34         -1.8710    -2.4350     4.6490 c6         1 C78      -0.083400
     35 C35         -0.6460    -0.1750     5.1130 c          1 C78       0.617100
     36 O36         -1.3370     0.0660     6.0960 o          1 C78      -0.617100
     37 N37          0.0310     0.8310     4.4540 ns         1 C78      -0.494900
     38 C38          0.0410     2.2550     4.8250 c6         1 C78       0.133700
     39 C39         -0.9960     3.0330     3.9730 c6         1 C78      -0.089400
     40 C40         -0.5890     3.0870     2.4780 c6         1 C78      -0.084400
     41 C41          0.8390     3.6560     2.2990 c6         1 C78      -0.071400
     42 C42          1.8650     2.8940     3.1730 c6         1 C78      -0.076400
     43 C43          1.4470     2.9190     4.6790 c6         1 C78      -0.162700
     44 C44          2.5000     2.2610     5.5990 c          1 C78       0.610100
     45 N45          2.9540     1.0310     5.2770 nt         1 C78      -0.608000
     46 O46          2.9680     2.8400     6.5640 o          1 C78      -0.626100
     47 HN11        -3.2460    -0.1070    -7.3120 hn         1 C78       0.452500
     48 HN12        -4.9000    -0.3800    -7.7870 hn         1 C78       0.452500
     49 HC31        -6.7510     0.0410    -6.3080 ha         1 C78       0.099000
     50 HC41        -7.5230     0.6370    -4.0200 ha         1 C78       0.097000
     51 HC51        -5.8730     1.2830    -2.2770 ha         1 C78       0.111000
     52 HC61        -2.6650     0.7340    -5.1190 ha         1 C78       0.137000
     53 HC81        -3.6250     2.0850    -1.7580 h1         1 C78       0.054700
     54 HC82        -2.3340     2.0460    -2.9770 h1         1 C78       0.054700
     55 H121        -1.7760    -1.6010    -0.9670 hn         1 C78       0.330500
     56 H131        -0.1380    -2.2250     0.4970 h1         1 C78       0.063700
     57 H141         0.9000     0.6430     0.6520 hc         1 C78       0.035700
     58 H142         1.7250    -0.8050     1.1650 hc         1 C78       0.035700
     59 H161         1.5260     1.5120    -1.4820 ha         1 C78       0.067000
     60 H171         2.5320     1.2360    -3.7130 ha         1 C78       0.126500
     61 H181         1.9050    -2.7370    -0.7750 ha         1 C78       0.067000
     62 H191         2.9140    -3.0120    -3.0250 ha         1 C78       0.126500
     63 H281         0.6160    -2.0660     2.7180 hn         1 C78       0.320500
     64 H301         1.5770    -1.8340     4.9800 hc         1 C78       0.061200
     65 H302         0.4830    -2.3510     6.2480 hc         1 C78       0.061200
     66 H311         1.0810    -3.8860     3.6410 hc         1 C78       0.039450
     67 H312         1.5630    -4.3370     5.2670 hc         1 C78       0.039450
     68 H321        -0.4530    -5.6380     4.4850 hc         1 C78       0.035200
     69 H322        -0.7870    -4.7140     5.9460 hc         1 C78       0.035200
     70 H331        -1.5770    -3.9260     3.0720 hc         1 C78       0.039450
     71 H332        -2.6670    -4.4450     4.3500 hc         1 C78       0.039450
     72 H341        -2.1500    -2.4500     5.7120 hc         1 C78       0.061200
     73 H342        -2.7070    -1.9480     4.1330 hc         1 C78       0.061200
     74 H371         0.4760     0.5580     3.5890 hn         1 C78       0.324500
     75 H381        -0.2600     2.3360     5.8810 h1         1 C78       0.084700
     76 H391        -1.0960     4.0550     4.3620 hc         1 C78       0.047700
     77 H392        -1.9870     2.5680     4.0730 hc         1 C78       0.047700
     78 H401        -1.3090     3.6980     1.9150 hc         1 C78       0.065200
     79 H402        -0.6390     2.0810     2.0450 hc         1 C78       0.065200
     80 H411         0.8460     4.7220     2.5670 hc         1 C78       0.042200
     81 H412         1.1320     3.5990     1.2420 hc         1 C78       0.042200
     82 H421         2.8530     3.3610     3.0580 hc         1 C78       0.041700
     83 H422         1.9710     1.8640     2.8040 hc         1 C78       0.041700
     84 H431         1.3650     3.9630     5.0110 hc         1 C78       0.075700
     85 H451         3.6620     0.6020     5.8540 hn         1 C78       0.314000
     86 H452         2.6060     0.5610     4.4570 hn         1 C78       0.314000
@<TRIPOS>BOND
     1     1     2 1   
     2     1    47 1   
     3     1    48 1   
     4     2     3 ar  
     5     2     7 ar  
     6     3     4 ar  
     7     3    49 1   
     8     4     5 ar  
     9     4    50 1   
    10     5     6 ar  
    11     5    51 1   
    12     6     7 ar  
    13     6     8 1   
    14     7    52 1   
    15     8     9 1   
    16     8    53 1   
    17     8    54 1   
    18     9    10 1   
    19    10    11 2   
    20    10    12 1   
    21    12    13 1   
    22    12    55 1   
    23    13    14 1   
    24    13    21 1   
    25    13    56 1   
    26    14    15 1   
    27    14    57 1   
    28    14    58 1   
    29    15    16 ar  
    30    15    18 ar  
    31    16    17 ar  
    32    16    59 1   
    33    17    20 ar  
    34    17    60 1   
    35    18    19 ar  
    36    18    61 1   
    37    19    20 ar  
    38    19    62 1   
    39    20    23 1   
    40    21    22 2   
    41    21    28 1   
    42    23    24 1   
    43    24    25 1   
    44    24    26 1   
    45    24    27 1   
    46    28    29 1   
    47    28    63 1   
    48    29    30 1   
    49    29    34 1   
    50    29    35 1   
    51    30    31 1   
    52    30    64 1   
    53    30    65 1   
    54    31    32 1   
    55    31    66 1   
    56    31    67 1   
    57    32    33 1   
    58    32    68 1   
    59    32    69 1   
    60    33    34 1   
    61    33    70 1   
    62    33    71 1   
    63    34    72 1   
    64    34    73 1   
    65    35    36 2   
    66    35    37 1   
    67    37    38 1   
    68    37    74 1   
    69    38    39 1   
    70    38    43 1   
    71    38    75 1   
    72    39    40 1   
    73    39    76 1   
    74    39    77 1   
    75    40    41 1   
    76    40    78 1   
    77    40    79 1   
    78    41    42 1   
    79    41    80 1   
    80    41    81 1   
    81    42    43 1   
    82    42    82 1   
    83    42    83 1   
    84    43    44 1   
    85    43    84 1   
    86    44    45 1   
    87    44    46 2   
    88    45    85 1   
    89    45    86 1   
@<TRIPOS>SUBSTRUCTURE
     1 C78         1 TEMP              0 ****  ****    0 ROOT
