@<TRIPOS>MOLECULE
C78
   86    89     1     0     0
SMALL
bcc


@<TRIPOS>ATOM
      1 N1          -4.3540     0.6660    -6.9520 nv         1 C78      -0.829200
      2 C2          -4.7530     0.7700    -5.6370 ca         1 C78       0.150600
      3 C3          -6.1040     0.6540    -5.2840 ca         1 C78      -0.201000
      4 C4          -6.5020     0.8220    -3.9690 ca         1 C78      -0.106000
      5 C5          -5.5770     1.1070    -2.9730 ca         1 C78      -0.159000
      6 C7          -4.2320     1.2220    -3.3090 ca         1 C78      -0.050300
      7 C6          -3.8280     1.0530    -4.6270 ca         1 C78      -0.160000
      8 C8          -3.2080     1.4980    -2.2500 c3         1 C78       0.205700
      9 O9          -2.7040     0.2310    -1.8130 os         1 C78      -0.436900
     10 C10         -1.7380     0.2580    -0.8850 c          1 C78       0.777100
     11 O11         -1.3140     1.2790    -0.3870 o          1 C78      -0.601000
     12 N12         -1.3010    -0.9870    -0.6220 ns         1 C78      -0.529900
     13 C13         -0.3380    -1.2990     0.3930 c3         1 C78       0.060700
     14 C14          1.0230    -0.5920     0.2060 c3         1 C78       0.001900
     15 C15          1.5740    -0.8040    -1.1760 ca         1 C78      -0.228300
     16 C16          1.4320     0.1540    -2.1760 ca         1 C78      -0.107000
     17 C17          1.8940    -0.0740    -3.4650 ca         1 C78      -0.203000
     18 C18          2.2040    -2.0010    -1.5090 ca         1 C78      -0.107000
     19 C19          2.6700    -2.2390    -2.7930 ca         1 C78      -0.203000
     20 C20          2.5010    -1.2860    -3.8000 ca         1 C78       0.306100
     21 C21         -0.9250    -1.0890     1.7960 c          1 C78       0.635100
     22 O22         -2.0260    -0.6130     1.9850 o          1 C78      -0.586100
     23 O23          2.8830    -1.5520    -5.0550 os         1 C78      -0.431500
     24 P24          4.4030    -0.9000    -5.6330 p5         1 C78       1.248900
     25 O25          4.4150    -1.4880    -7.0320 o          1 C78      -0.896833
     26 O26          5.4230    -1.4680    -4.6620 o          1 C78      -0.896833
     27 O27          4.2140     0.6060    -5.5550 o          1 C78      -0.896833
     28 N28         -0.1140    -1.4900     2.8020 ns         1 C78      -0.592900
     29 C29         -0.5310    -1.5620     4.1970 c6         1 C78       0.056400
     30 C30          0.6960    -1.9930     5.0280 c6         1 C78      -0.083400
     31 C31          1.1370    -3.4250     4.7310 c6         1 C78      -0.075400
     32 C32         -0.0110    -4.4120     4.8910 c6         1 C78      -0.074400
     33 C33         -1.2160    -3.9950     4.0560 c6         1 C78      -0.075400
     34 C34         -1.6610    -2.5790     4.4030 c6         1 C78      -0.083400
     35 C35         -0.9390    -0.1680     4.7030 c          1 C78       0.684100
     36 O36         -1.8210    -0.0230     5.5340 o          1 C78      -0.617100
     37 N37         -0.1800     0.8420     4.2520 ns         1 C78      -0.561900
     38 C38         -0.2880     2.2100     4.7240 c6         1 C78       0.133700
     39 C39         -1.2330     3.0490     3.8660 c6         1 C78      -0.089400
     40 C40         -0.6820     3.3050     2.4700 c6         1 C78      -0.084400
     41 C41          0.7050     3.9330     2.5360 c6         1 C78      -0.071400
     42 C42          1.6680     3.0850     3.3610 c6         1 C78      -0.076400
     43 C43          1.1160     2.8370     4.7650 c6         1 C78      -0.162700
     44 C44          1.9860     2.0160     5.7080 c          1 C78       0.677100
     45 N45          3.0630     1.4170     5.1830 nt         1 C78      -0.675000
     46 O46          1.6830     1.9060     6.8890 o          1 C78      -0.626100
     47 HN11        -3.3860     0.4330    -7.1010 hn         1 C78       0.397300
     48 HN12        -4.9640     0.1390    -7.5560 hn         1 C78       0.397300
     49 HC31        -6.8400     0.4400    -6.0500 ha         1 C78       0.117000
     50 HC41        -7.5530     0.7320    -3.7210 ha         1 C78       0.115000
     51 HC51        -5.8980     1.2400    -1.9470 ha         1 C78       0.129000
     52 HC61        -2.7770     1.1490    -4.8810 ha         1 C78       0.155000
     53 HC81        -3.6550     2.0350    -1.4100 h1         1 C78       0.054700
     54 HC82        -2.3930     2.1080    -2.6460 h1         1 C78       0.054700
     55 H121        -1.7480    -1.7590    -1.0890 hn         1 C78       0.330500
     56 H131        -0.1540    -2.3730     0.2910 h1         1 C78       0.063700
     57 H141         0.9210     0.4710     0.4230 hc         1 C78       0.035700
     58 H142         1.7260    -0.9980     0.9370 hc         1 C78       0.035700
     59 H161         0.9500     1.0970    -1.9460 ha         1 C78       0.085000
     60 H171         1.7730     0.6850    -4.2260 ha         1 C78       0.144500
     61 H181         2.3400    -2.7630    -0.7480 ha         1 C78       0.085000
     62 H191         3.1570    -3.1770    -3.0290 ha         1 C78       0.144500
     63 H281         0.7400    -1.9640     2.5540 hn         1 C78       0.320500
     64 H301         1.5220    -1.2950     4.8640 hc         1 C78       0.061200
     65 H302         0.4270    -1.9130     6.0850 hc         1 C78       0.061200
     66 H311         1.5460    -3.5000     3.7170 hc         1 C78       0.039450
     67 H312         1.9620    -3.6820     5.3990 hc         1 C78       0.039450
     68 H321         0.3170    -5.4180     4.6170 hc         1 C78       0.035200
     69 H322        -0.3050    -4.4550     5.9460 hc         1 C78       0.035200
     70 H331        -0.9730    -4.0710     2.9900 hc         1 C78       0.039450
     71 H332        -2.0470    -4.6820     4.2250 hc         1 C78       0.039450
     72 H341        -1.9610    -2.5510     5.4520 hc         1 C78       0.061200
     73 H342        -2.5380    -2.2930     3.8230 hc         1 C78       0.061200
     74 H371         0.4840     0.6380     3.5240 hn         1 C78       0.324500
     75 H381        -0.6750     2.1690     5.7410 h1         1 C78       0.084700
     76 H391        -1.3950     4.0040     4.3770 hc         1 C78       0.047700
     77 H392        -2.2040     2.5520     3.8150 hc         1 C78       0.047700
     78 H401        -1.3610     3.9640     1.9240 hc         1 C78       0.065200
     79 H402        -0.6480     2.3740     1.8970 hc         1 C78       0.065200
     80 H411         0.6320     4.9290     2.9840 hc         1 C78       0.042200
     81 H412         1.1100     4.0730     1.5310 hc         1 C78       0.042200
     82 H421         2.6370     3.5870     3.4280 hc         1 C78       0.041700
     83 H422         1.8550     2.1450     2.8280 hc         1 C78       0.041700
     84 H431         1.0000     3.8140     5.2480 hc         1 C78       0.075700
     85 H451         3.6670     0.8630     5.7680 hn         1 C78       0.314000
     86 H452         3.3370     1.5290     4.2230 hn         1 C78       0.314000
@<TRIPOS>BOND
     1     1     2 1   
     2     1    47 1   
     3     1    48 1   
     4     2     3 ar  
     5     2     7 ar  
     6     3     4 ar  
     7     3    49 1   
     8     4     5 ar  
     9     4    50 1   
    10     5     6 ar  
    11     5    51 1   
    12     6     7 ar  
    13     6     8 1   
    14     7    52 1   
    15     8     9 1   
    16     8    53 1   
    17     8    54 1   
    18     9    10 1   
    19    10    11 2   
    20    10    12 1   
    21    12    13 1   
    22    12    55 1   
    23    13    14 1   
    24    13    21 1   
    25    13    56 1   
    26    14    15 1   
    27    14    57 1   
    28    14    58 1   
    29    15    16 ar  
    30    15    18 ar  
    31    16    17 ar  
    32    16    59 1   
    33    17    20 ar  
    34    17    60 1   
    35    18    19 ar  
    36    18    61 1   
    37    19    20 ar  
    38    19    62 1   
    39    20    23 1   
    40    21    22 2   
    41    21    28 1   
    42    23    24 1   
    43    24    25 1   
    44    24    26 1   
    45    24    27 1   
    46    28    29 1   
    47    28    63 1   
    48    29    30 1   
    49    29    34 1   
    50    29    35 1   
    51    30    31 1   
    52    30    64 1   
    53    30    65 1   
    54    31    32 1   
    55    31    66 1   
    56    31    67 1   
    57    32    33 1   
    58    32    68 1   
    59    32    69 1   
    60    33    34 1   
    61    33    70 1   
    62    33    71 1   
    63    34    72 1   
    64    34    73 1   
    65    35    36 2   
    66    35    37 1   
    67    37    38 1   
    68    37    74 1   
    69    38    39 1   
    70    38    43 1   
    71    38    75 1   
    72    39    40 1   
    73    39    76 1   
    74    39    77 1   
    75    40    41 1   
    76    40    78 1   
    77    40    79 1   
    78    41    42 1   
    79    41    80 1   
    80    41    81 1   
    81    42    43 1   
    82    42    82 1   
    83    42    83 1   
    84    43    44 1   
    85    43    84 1   
    86    44    45 1   
    87    44    46 2   
    88    45    85 1   
    89    45    86 1   
@<TRIPOS>SUBSTRUCTURE
     1 C78         1 TEMP              0 ****  ****    0 ROOT
