@<TRIPOS>MOLECULE
C79
   57    59     1     0     0
SMALL
No Charge or Current Charge


@<TRIPOS>ATOM
      1 C01        -45.7680    -6.7430    31.9100 c3         1 C79      -0.086100
      2 C02        -46.5530    -7.3500    30.7290 c3         1 C79      -0.052100
      3 C03        -46.0420    -8.7530    30.3450 ca         1 C79       0.097700
      4 C04        -46.5740    -9.9210    30.9410 ca         1 C79      -0.177000
      5 C05        -47.5880    -9.8520    31.9530 cg         1 C79       0.342000
      6 C07        -46.0630   -11.1730    30.5570 ca         1 C79       0.709900
      7 C09        -45.5880   -13.4560    31.5320 c6         1 C79       0.224800
      8 C10        -45.5110   -14.6190    30.5120 c6         1 C79      -0.095900
      9 C11        -46.9100   -15.1730    30.1510 c6         1 C79       0.162500
     10 C12        -47.8430   -14.0200    29.7100 c6         1 C79      -0.095900
     11 C13        -47.8950   -12.8810    30.7560 c6         1 C79       0.224800
     12 C16        -44.5660   -10.2270    29.0940 ca         1 C79       0.559300
     13 C18        -43.4240   -12.3180    27.4410 c3         1 C79       0.014600
     14 C19        -42.2460   -12.7640    26.5780 ca         1 C79      -0.045300
     15 C20        -41.4440   -13.8480    26.9820 ca         1 C79      -0.096000
     16 C21        -40.3600   -14.2680    26.1920 ca         1 C79      -0.057500
     17 C22        -40.0540   -13.6070    24.9830 ca         1 C79      -0.187300
     18 C23        -38.8790   -14.0700    24.1150 c3         1 C79       0.357300
     19 C27        -40.8660   -12.5260    24.5760 ca         1 C79      -0.057500
     20 C28        -41.9490   -12.1080    25.3670 ca         1 C79      -0.096000
     21 C29        -44.7740   -12.6480    26.7600 c          1 C79       0.627100
     22 C32        -45.0010    -8.9260    29.4010 ca         1 C79      -0.151000
     23 C33        -44.3710    -7.8080    28.7590 cg         1 C79       0.338000
     24 F24        -37.8800   -14.6140    24.8490 f          1 C79      -0.112000
     25 F25        -39.2680   -15.0080    23.2230 f          1 C79      -0.112000
     26 F26        -38.3290   -13.0560    23.4090 f          1 C79      -0.112000
     27 N06        -48.4170    -9.7790    32.7720 n1         1 C79      -0.466000
     28 N08        -46.5260   -12.3920    31.0750 nh         1 C79      -0.757300
     29 N15        -45.0840   -11.3230    29.6620 nb         1 C79      -0.796000
     30 N30        -45.3670   -11.6550    26.0580 nt         1 C79      -0.599000
     31 N34        -43.8700    -6.8880    28.2450 n1         1 C79      -0.450000
     32 O31        -45.2950   -13.7510    26.8070 o          1 C79      -0.599100
     33 S17        -43.2450   -10.5180    27.9100 ss         1 C79      -0.324300
     34 H1         -46.1560    -5.7480    32.1570 hc         1 C79       0.044700
     35 H2         -45.8560    -7.3760    32.8020 hc         1 C79       0.044700
     36 H3         -44.7050    -6.6440    31.6610 hc         1 C79       0.044700
     37 H4         -46.5000    -6.6610    29.8780 hc         1 C79       0.063700
     38 H5         -47.6180    -7.3720    30.9870 hc         1 C79       0.063700
     39 H6         -45.9200   -13.8480    32.5050 h1         1 C79       0.071950
     40 H7         -44.5790   -13.0460    31.6930 h1         1 C79       0.071950
     41 H8         -44.8700   -15.4190    30.9050 hc         1 C79       0.054700
     42 H9         -45.0220   -14.2610    29.5970 hc         1 C79       0.054700
     43 H10        -46.8050   -15.8830    29.3180 h1         1 C79       0.023700
     44 H11        -47.4840   -13.6120    28.7560 hc         1 C79       0.054700
     45 H12        -48.8560   -14.3980    29.5190 hc         1 C79       0.054700
     46 H13        -48.5220   -12.0670    30.3640 h1         1 C79       0.071950
     47 H14        -48.3860   -13.2430    31.6720 h1         1 C79       0.071950
     48 H15        -43.4130   -12.8980    28.3710 h1         1 C79       0.119700
     49 H16        -41.6590   -14.3720    27.9110 ha         1 C79       0.125500
     50 H17        -39.7600   -15.1130    26.5250 ha         1 C79       0.133500
     51 H18        -40.6630   -12.0060    23.6420 ha         1 C79       0.133500
     52 H19        -42.5580   -11.2710    25.0350 ha         1 C79       0.125500
     53 H20        -48.3680   -16.3640    30.9660 hn         1 C79       0.398500
     54 H21        -46.8890   -16.7370    31.4790 hn         1 C79       0.398500
     55 H23        -46.2420   -11.8370    25.5900 hn         1 C79       0.324000
     56 H24        -44.9330   -10.7460    26.0070 hn         1 C79       0.324000
     57 N14        -47.4920   -15.9300    31.2780 n8         1 C79      -1.006200
@<TRIPOS>BOND
     1     1     2 1   
     2     1    34 1   
     3     1    35 1   
     4     1    36 1   
     5     2     3 1   
     6     2    37 1   
     7     2    38 1   
     8     3     4 ar  
     9     3    22 ar  
    10     4     5 1   
    11     4     6 ar  
    12     5    27 3   
    13     6    28 1   
    14     6    29 ar  
    15     7     8 1   
    16     7    28 1   
    17     7    39 1   
    18     7    40 1   
    19     8     9 1   
    20     8    41 1   
    21     8    42 1   
    22     9    10 1   
    23     9    43 1   
    24     9    57 1   
    25    10    11 1   
    26    10    44 1   
    27    10    45 1   
    28    11    28 1   
    29    11    46 1   
    30    11    47 1   
    31    12    22 ar  
    32    12    29 ar  
    33    12    33 1   
    34    13    14 1   
    35    13    21 1   
    36    13    33 1   
    37    13    48 1   
    38    14    15 ar  
    39    14    20 ar  
    40    15    16 ar  
    41    15    49 1   
    42    16    17 ar  
    43    16    50 1   
    44    17    18 1   
    45    17    19 ar  
    46    18    24 1   
    47    18    25 1   
    48    18    26 1   
    49    19    20 ar  
    50    19    51 1   
    51    20    52 1   
    52    21    30 1   
    53    21    32 2   
    54    22    23 1   
    55    23    31 3   
    56    30    55 1   
    57    30    56 1   
    58    53    57 1   
    59    54    57 1   
@<TRIPOS>SUBSTRUCTURE
     1 C79         1 TEMP              0 ****  ****    0 ROOT
