@<TRIPOS>MOLECULE
C79
   57    59     1     0     0
SMALL
abcg2


@<TRIPOS>ATOM
      1 C01        -45.0860    -7.0990    31.5150 c3         1 C79      -0.086100
      2 C02        -46.2310    -7.6510    30.6630 c3         1 C79      -0.052100
      3 C03        -45.9220    -9.0300    30.1640 ca         1 C79       0.097700
      4 C04        -46.2880   -10.1640    30.8880 ca         1 C79      -0.177000
      5 C05        -46.7950    -9.9810    32.2000 cg         1 C79       0.342000
      6 C07        -45.9900   -11.4640    30.3710 ca         1 C79       0.709900
      7 C09        -45.9140   -13.8980    30.5370 c6         1 C79       0.224800
      8 C10        -46.8470   -14.6640    29.6120 c6         1 C79      -0.095900
      9 C11        -48.2280   -14.8350    30.2390 c6         1 C79       0.162500
     10 C12        -48.7500   -13.4680    30.6660 c6         1 C79      -0.095900
     11 C13        -47.7720   -12.7040    31.5540 c6         1 C79       0.224800
     12 C16        -44.7490   -10.5180    28.6860 ca         1 C79       0.559300
     13 C18        -43.2310   -12.4800    27.4370 c3         1 C79       0.014600
     14 C19        -41.9600   -12.6550    26.6440 ca         1 C79      -0.045300
     15 C20        -40.7580   -12.8760    27.3060 ca         1 C79      -0.096000
     16 C21        -39.5750   -12.9980    26.5960 ca         1 C79      -0.057500
     17 C22        -39.5860   -12.8930    25.2100 ca         1 C79      -0.187300
     18 C23        -38.3050   -13.0560    24.4540 c3         1 C79       0.357300
     19 C27        -40.7830   -12.6800    24.5400 ca         1 C79      -0.057500
     20 C28        -41.9630   -12.5590    25.2560 ca         1 C79      -0.096000
     21 C29        -44.3150   -13.4410    26.9450 c          1 C79       0.627100
     22 C32        -45.1720    -9.2120    29.0020 ca         1 C79      -0.151000
     23 C33        -44.7620    -8.1170    28.2020 cg         1 C79       0.338000
     24 F24        -37.2780   -12.4650    25.0770 f          1 C79      -0.112000
     25 F25        -37.9790   -14.3510    24.3170 f          1 C79      -0.112000
     26 F26        -38.3670   -12.5410    23.2230 f          1 C79      -0.112000
     27 N06        -47.1500    -9.8030    33.2840 n1         1 C79      -0.466000
     28 N08        -46.4740   -12.5960    30.8930 nh         1 C79      -0.757300
     29 N15        -45.1540   -11.5780    29.3270 nb         1 C79      -0.796000
     30 N30        -45.2870   -12.9410    26.1820 nt         1 C79      -0.599000
     31 N34        -44.4200    -7.2410    27.5330 n1         1 C79      -0.450000
     32 O31        -44.2040   -14.6190    27.2380 o          1 C79      -0.599100
     33 S17        -43.6110   -10.7020    27.3620 ss         1 C79      -0.324300
     34 H1         -45.3320    -6.0960    31.8600 hc         1 C79       0.044700
     35 H2         -44.9070    -7.7200    32.3920 hc         1 C79       0.044700
     36 H3         -44.1590    -7.0410    30.9460 hc         1 C79       0.044700
     37 H4         -46.4080    -6.9880    29.8150 hc         1 C79       0.063700
     38 H5         -47.1540    -7.6600    31.2420 hc         1 C79       0.063700
     39 H6         -45.7790   -14.4490    31.4700 h1         1 C79       0.071950
     40 H7         -44.9370   -13.7640    30.0850 h1         1 C79       0.071950
     41 H8         -46.4060   -15.6380    29.3860 hc         1 C79       0.054700
     42 H9         -46.9400   -14.1300    28.6630 hc         1 C79       0.054700
     43 H10        -48.9070   -15.2310    29.4710 h1         1 C79       0.023700
     44 H11        -48.9620   -12.8700    29.7760 hc         1 C79       0.054700
     45 H12        -49.6960   -13.5700    31.2060 hc         1 C79       0.054700
     46 H13        -48.1910   -11.7240    31.7560 h1         1 C79       0.071950
     47 H14        -47.6390   -13.2060    32.5140 h1         1 C79       0.071950
     48 H15        -43.0430   -12.7290    28.4820 h1         1 C79       0.119700
     49 H16        -40.7410   -12.9500    28.3860 ha         1 C79       0.125500
     50 H17        -38.6540   -13.1700    27.1370 ha         1 C79       0.133500
     51 H18        -40.8140   -12.5990    23.4620 ha         1 C79       0.133500
     52 H19        -42.8870   -12.3880    24.7180 ha         1 C79       0.125500
     53 H20        -49.0530   -15.8480    31.7980 hn         1 C79       0.398500
     54 H21        -47.8100   -16.6230    31.1140 hn         1 C79       0.398500
     55 H23        -46.0010   -13.5510    25.8150 hn         1 C79       0.324000
     56 H24        -45.3490   -11.9630    25.9550 hn         1 C79       0.324000
     57 N14        -48.1320   -15.7070    31.4020 n8         1 C79      -1.006200
@<TRIPOS>BOND
     1     1     2 1   
     2     1    34 1   
     3     1    35 1   
     4     1    36 1   
     5     2     3 1   
     6     2    37 1   
     7     2    38 1   
     8     3     4 ar  
     9     3    22 ar  
    10     4     5 1   
    11     4     6 ar  
    12     5    27 3   
    13     6    28 1   
    14     6    29 ar  
    15     7     8 1   
    16     7    28 1   
    17     7    39 1   
    18     7    40 1   
    19     8     9 1   
    20     8    41 1   
    21     8    42 1   
    22     9    10 1   
    23     9    43 1   
    24     9    57 1   
    25    10    11 1   
    26    10    44 1   
    27    10    45 1   
    28    11    28 1   
    29    11    46 1   
    30    11    47 1   
    31    12    22 ar  
    32    12    29 ar  
    33    12    33 1   
    34    13    14 1   
    35    13    21 1   
    36    13    33 1   
    37    13    48 1   
    38    14    15 ar  
    39    14    20 ar  
    40    15    16 ar  
    41    15    49 1   
    42    16    17 ar  
    43    16    50 1   
    44    17    18 1   
    45    17    19 ar  
    46    18    24 1   
    47    18    25 1   
    48    18    26 1   
    49    19    20 ar  
    50    19    51 1   
    51    20    52 1   
    52    21    30 1   
    53    21    32 2   
    54    22    23 1   
    55    23    31 3   
    56    30    55 1   
    57    30    56 1   
    58    53    57 1   
    59    54    57 1   
@<TRIPOS>SUBSTRUCTURE
     1 C79         1 TEMP              0 ****  ****    0 ROOT
