@<TRIPOS>MOLECULE
C7A
   63    65     1     0     0
SMALL
bcc


@<TRIPOS>ATOM
      1 C1         -17.8520   -16.8890    -2.2650 c3         1 C7A      -0.084433
      2 C2         -17.8230   -16.2550    -0.8740 c3         1 C7A      -0.002700
      3 C3         -18.8420   -16.9870     0.0090 c3         1 C7A      -0.084433
      4 C4         -18.2290   -14.7820    -1.0090 c3         1 C7A      -0.084433
      5 C5         -16.4450   -16.3340    -0.2280 ca         1 C7A      -0.052300
      6 C6         -16.2470   -15.8110     1.0530 ca         1 C7A      -0.124500
      7 C7         -15.0090   -15.8460     1.6690 ca         1 C7A      -0.120000
      8 C8         -13.9210   -16.4130     1.0160 ca         1 C7A       0.014600
      9 N1         -12.6330   -16.4580     1.6330 n          1 C7A      -0.407000
     10 C9         -12.1660   -17.5870     2.2320 c          1 C7A       0.669100
     11 O1         -11.0420   -17.6670     2.6790 o          1 C7A      -0.549100
     12 C10        -13.1690   -18.7300     2.3200 c3         1 C7A      -0.046000
     13 C11        -11.7100   -15.3280     1.5320 c3         1 C7A       0.088000
     14 C12        -12.1450   -14.4180     0.3680 c          1 C7A       0.665100
     15 O2         -11.8360   -14.7170    -0.7740 o          1 C7A      -0.594100
     16 N2         -12.8440   -13.3310     0.7050 ns         1 C7A      -0.557900
     17 C13        -13.4070   -12.3930    -0.2480 c6         1 C7A       0.108700
     18 C14        -13.3570   -10.9810     0.3290 c6         1 C7A      -0.090900
     19 C15        -13.9700    -9.9720    -0.6370 c6         1 C7A      -0.071900
     20 C16        -15.3950   -10.3590    -1.0170 c6         1 C7A      -0.077400
     21 C17        -15.4390   -11.7700    -1.5970 c6         1 C7A      -0.071900
     22 C18        -14.8350   -12.7800    -0.6270 c6         1 C7A      -0.090900
     23 C19        -11.5040   -14.5920     2.8360 ca         1 C7A      -0.219600
     24 C20        -10.4910   -13.6390     2.9130 ca         1 C7A      -0.083000
     25 C21        -10.2880   -12.9540     4.0960 ca         1 C7A      -0.245300
     26 C22        -11.1050   -13.2510     5.1790 ca         1 C7A       0.405200
     27 N3         -12.0660   -14.1620     5.1270 nb         1 C7A      -0.665000
     28 C23        -12.2540   -14.8130     3.9830 ca         1 C7A       0.417200
     29 C24        -14.0960   -16.9370    -0.2550 ca         1 C7A      -0.120000
     30 C25        -15.3430   -16.9000    -0.8630 ca         1 C7A      -0.124500
     31 H1         -17.5910   -17.9480    -2.2390 hc         1 C7A       0.037478
     32 H2         -18.8590   -16.8100    -2.6770 hc         1 C7A       0.037478
     33 H3         -17.1750   -16.3880    -2.9590 hc         1 C7A       0.037478
     34 H4         -18.9080   -16.5530     1.0080 hc         1 C7A       0.037478
     35 H5         -19.8360   -16.9310    -0.4390 hc         1 C7A       0.037478
     36 H6         -18.5830   -18.0410     0.1180 hc         1 C7A       0.037478
     37 H7         -18.2660   -14.2740    -0.0450 hc         1 C7A       0.037478
     38 H8         -17.5280   -14.2390    -1.6470 hc         1 C7A       0.037478
     39 H9         -19.2200   -14.7040    -1.4600 hc         1 C7A       0.037478
     40 H10        -17.0730   -15.3590     1.5890 ha         1 C7A       0.138500
     41 H11        -14.8970   -15.4320     2.6630 ha         1 C7A       0.146000
     42 H12        -14.1060   -18.3970     2.7650 h1         1 C7A       0.086700
     43 H13        -13.3910   -19.1280     1.3300 h1         1 C7A       0.086700
     44 H15        -10.7360   -15.7200     1.2250 h1         1 C7A       0.106700
     45 H16        -13.0970   -13.2000     1.6730 hn         1 C7A       0.318500
     46 H17        -12.7830   -12.4230    -1.1450 h1         1 C7A       0.079700
     47 H18        -12.3230   -10.7130     0.5580 hc         1 C7A       0.046200
     48 H19        -13.9090   -10.9610     1.2760 hc         1 C7A       0.046200
     49 H20        -13.3560    -9.9230    -1.5430 hc         1 C7A       0.042950
     50 H21        -13.9490    -8.9750    -0.1920 hc         1 C7A       0.042950
     51 H22        -15.8040    -9.6420    -1.7320 hc         1 C7A       0.040700
     52 H23        -16.0320   -10.3150    -0.1280 hc         1 C7A       0.040700
     53 H24        -16.4670   -12.0540    -1.8340 hc         1 C7A       0.042950
     54 H25        -14.8840   -11.7920    -2.5410 hc         1 C7A       0.042950
     55 H26        -15.4420   -12.8180     0.2840 hc         1 C7A       0.046200
     56 H27        -14.8460   -13.7850    -1.0550 hc         1 C7A       0.046200
     57 H28         -9.8650   -13.4340     2.0520 ha         1 C7A       0.143000
     58 H29         -9.5110   -12.2070     4.1850 ha         1 C7A       0.145000
     59 H30        -10.9740   -12.7350     6.1230 h4         1 C7A       0.021100
     60 H31        -13.0460   -15.5520     3.9930 h4         1 C7A       0.020100
     61 H32        -13.2560   -17.3820    -0.7740 ha         1 C7A       0.146000
     62 H33        -15.4360   -17.3230    -1.8540 ha         1 C7A       0.138500
     63 CL1        -12.5280   -20.0550     3.3130 cl         1 C7A      -0.149400
@<TRIPOS>BOND
     1     1     2 1   
     2     1    31 1   
     3     1    32 1   
     4     1    33 1   
     5     2     3 1   
     6     2     4 1   
     7     2     5 1   
     8     3    34 1   
     9     3    35 1   
    10     3    36 1   
    11     4    37 1   
    12     4    38 1   
    13     4    39 1   
    14     5     6 ar  
    15     5    30 ar  
    16     6     7 ar  
    17     6    40 1   
    18     7     8 ar  
    19     7    41 1   
    20     8     9 1   
    21     8    29 ar  
    22     9    10 1   
    23     9    13 1   
    24    10    11 2   
    25    10    12 1   
    26    12    42 1   
    27    12    43 1   
    28    12    63 1   
    29    13    14 1   
    30    13    23 1   
    31    13    44 1   
    32    14    15 2   
    33    14    16 1   
    34    16    17 1   
    35    16    45 1   
    36    17    18 1   
    37    17    22 1   
    38    17    46 1   
    39    18    19 1   
    40    18    47 1   
    41    18    48 1   
    42    19    20 1   
    43    19    49 1   
    44    19    50 1   
    45    20    21 1   
    46    20    51 1   
    47    20    52 1   
    48    21    22 1   
    49    21    53 1   
    50    21    54 1   
    51    22    55 1   
    52    22    56 1   
    53    23    24 ar  
    54    23    28 ar  
    55    24    25 ar  
    56    24    57 1   
    57    25    26 ar  
    58    25    58 1   
    59    26    27 ar  
    60    26    59 1   
    61    27    28 ar  
    62    28    60 1   
    63    29    30 ar  
    64    29    61 1   
    65    30    62 1   
@<TRIPOS>SUBSTRUCTURE
     1 C7A         1 TEMP              0 ****  ****    0 ROOT
