@<TRIPOS>MOLECULE
C7A
   63    65     1     0     0
SMALL
No Charge or Current Charge


@<TRIPOS>ATOM
      1 C1         -18.1990   -17.4950    -1.9370 c3         1 C7A      -0.084433
      2 C2         -17.9290   -16.4280    -0.8390 c3         1 C7A      -0.002700
      3 C3         -18.9500   -16.6520     0.3080 c3         1 C7A      -0.084433
      4 C4         -18.1590   -15.0270    -1.4690 c3         1 C7A      -0.084433
      5 C5         -16.4890   -16.4960    -0.2660 ca         1 C7A      -0.052300
      6 C6         -16.0920   -15.5740     0.7270 ca         1 C7A      -0.106500
      7 C7         -14.7880   -15.5790     1.2470 ca         1 C7A      -0.102000
      8 C8         -13.8220   -16.4800     0.7610 ca         1 C7A      -0.078000
      9 N1         -12.5150   -16.5420     1.3730 n          1 C7A      -0.247400
     10 C9         -11.9630   -17.7200     1.9520 c          1 C7A       0.602100
     11 O1         -10.7890   -17.7580     2.3090 o          1 C7A      -0.549100
     12 C10        -12.8970   -18.9260     2.1870 c3         1 C7A       0.030600
     13 C11        -11.6980   -15.2850     1.4100 c3         1 C7A       0.088000
     14 C12        -12.0750   -14.2850     0.2760 c          1 C7A       0.598100
     15 O2         -11.8430   -14.5170    -0.9050 o          1 C7A      -0.594100
     16 N2         -12.6780   -13.1070     0.6730 ns         1 C7A      -0.490900
     17 C13        -13.2420   -12.0960    -0.2250 c6         1 C7A       0.108700
     18 C14        -13.3240   -10.7280     0.4980 c6         1 C7A      -0.090900
     19 C15        -13.9610    -9.6460    -0.4110 c6         1 C7A      -0.071900
     20 C16        -15.3640   -10.0830    -0.9000 c6         1 C7A      -0.077400
     21 C17        -15.3060   -11.4590    -1.6070 c6         1 C7A      -0.071900
     22 C18        -14.6590   -12.5280    -0.6920 c6         1 C7A      -0.090900
     23 C19        -11.5920   -14.6230     2.7970 ca         1 C7A      -0.154300
     24 C20        -10.6020   -13.6460     3.0290 ca         1 C7A      -0.065000
     25 C21        -10.5240   -13.0580     4.3010 ca         1 C7A      -0.162000
     26 C22        -11.4220   -13.4620     5.3000 ca         1 C7A       0.339900
     27 N3         -12.3690   -14.4050     5.0950 nb         1 C7A      -0.665000
     28 C23        -12.4440   -14.9730     3.8690 ca         1 C7A       0.351900
     29 C24        -14.2320   -17.4590    -0.1630 ca         1 C7A      -0.102000
     30 C25        -15.5360   -17.4550    -0.6880 ca         1 C7A      -0.106500
     31 H1         -18.0850   -18.5110    -1.5380 hc         1 C7A       0.037478
     32 H2         -19.2210   -17.4080    -2.3250 hc         1 C7A       0.037478
     33 H3         -17.5140   -17.3730    -2.7850 hc         1 C7A       0.037478
     34 H4         -18.8750   -15.8730     1.0750 hc         1 C7A       0.037478
     35 H5         -19.9790   -16.6410    -0.0740 hc         1 C7A       0.037478
     36 H6         -18.7800   -17.6210     0.7930 hc         1 C7A       0.037478
     37 H7         -18.0780   -14.2270    -0.7240 hc         1 C7A       0.037478
     38 H8         -17.4190   -14.8300    -2.2550 hc         1 C7A       0.037478
     39 H9         -19.1570   -14.9570    -1.9190 hc         1 C7A       0.037478
     40 H10        -16.7950   -14.8380     1.1060 ha         1 C7A       0.120500
     41 H11        -14.5350   -14.8590     2.0190 ha         1 C7A       0.128000
     42 H12        -13.9060   -18.5590     2.4080 h1         1 C7A       0.086700
     43 H13        -12.9250   -19.5360     1.2780 h1         1 C7A       0.086700
     44 H15        -10.6750   -15.5720     1.1380 h1         1 C7A       0.106700
     45 H16        -12.7990   -12.9790     1.6700 hn         1 C7A       0.318500
     46 H17        -12.5860   -11.9970    -1.1040 h1         1 C7A       0.079700
     47 H18        -12.3180   -10.4070     0.8010 hc         1 C7A       0.046200
     48 H19        -13.9120   -10.8250     1.4210 hc         1 C7A       0.046200
     49 H20        -13.3090    -9.4580    -1.2750 hc         1 C7A       0.042950
     50 H21        -14.0370    -8.6960     0.1360 hc         1 C7A       0.042950
     51 H22        -15.7730    -9.3280    -1.5860 hc         1 C7A       0.040700
     52 H23        -16.0540   -10.1350    -0.0470 hc         1 C7A       0.040700
     53 H24        -16.3190   -11.7760    -1.8920 hc         1 C7A       0.042950
     54 H25        -14.7310   -11.3740    -2.5400 hc         1 C7A       0.042950
     55 H26        -15.3030   -12.6990     0.1820 hc         1 C7A       0.046200
     56 H27        -14.6030   -13.4850    -1.2280 hc         1 C7A       0.046200
     57 H28         -9.9110   -13.3470     2.2430 ha         1 C7A       0.125000
     58 H29         -9.7770   -12.2990     4.5170 ha         1 C7A       0.127000
     59 H30        -11.3820   -13.0210     6.2950 h4         1 C7A       0.021100
     60 H31        -13.2160   -15.7310     3.7540 h4         1 C7A       0.020100
     61 H32        -13.5230   -18.2010    -0.5250 ha         1 C7A       0.128000
     62 H33        -15.7800   -18.2080    -1.4310 ha         1 C7A       0.120500
     63 Cl1        -12.3980   -20.0030     3.5780 cl         1 C7A      -0.226000
@<TRIPOS>BOND
     1     1     2 1   
     2     1    31 1   
     3     1    32 1   
     4     1    33 1   
     5     2     3 1   
     6     2     4 1   
     7     2     5 1   
     8     3    34 1   
     9     3    35 1   
    10     3    36 1   
    11     4    37 1   
    12     4    38 1   
    13     4    39 1   
    14     5     6 ar  
    15     5    30 ar  
    16     6     7 ar  
    17     6    40 1   
    18     7     8 ar  
    19     7    41 1   
    20     8     9 1   
    21     8    29 ar  
    22     9    10 1   
    23     9    13 1   
    24    10    11 2   
    25    10    12 1   
    26    12    42 1   
    27    12    43 1   
    28    12    63 1   
    29    13    14 1   
    30    13    23 1   
    31    13    44 1   
    32    14    15 2   
    33    14    16 1   
    34    16    17 1   
    35    16    45 1   
    36    17    18 1   
    37    17    22 1   
    38    17    46 1   
    39    18    19 1   
    40    18    47 1   
    41    18    48 1   
    42    19    20 1   
    43    19    49 1   
    44    19    50 1   
    45    20    21 1   
    46    20    51 1   
    47    20    52 1   
    48    21    22 1   
    49    21    53 1   
    50    21    54 1   
    51    22    55 1   
    52    22    56 1   
    53    23    24 ar  
    54    23    28 ar  
    55    24    25 ar  
    56    24    57 1   
    57    25    26 ar  
    58    25    58 1   
    59    26    27 ar  
    60    26    59 1   
    61    27    28 ar  
    62    28    60 1   
    63    29    30 ar  
    64    29    61 1   
    65    30    62 1   
@<TRIPOS>SUBSTRUCTURE
     1 C7A         1 TEMP              0 ****  ****    0 ROOT
