@<TRIPOS>MOLECULE
C7B
   54    56     1     0     0
SMALL
No Charge or Current Charge


@<TRIPOS>ATOM
      1 C12         -0.7590    -2.1840    -0.1380 c6         1 C7B      -0.088400
      2 C10         -1.4600    -0.9080     0.3910 c6         1 C7B       0.111700
      3 C21          8.0980    -0.4040     0.7070 ca         1 C7B      -0.162750
      4 C25          9.4650    -0.3680     1.0410 ca         1 C7B      -0.065750
      5 C29         10.3660     0.3590     0.2440 ca         1 C7B       0.083000
      6 Cl1         12.0730     0.4010     0.6640 cl         1 C7B      -0.203500
      7 C27          9.9040     1.0510    -0.8880 ca         1 C7B      -0.065750
      8 C23          8.5380     1.0150    -1.2230 ca         1 C7B      -0.162750
      9 C19          7.6300     0.2910    -0.4310 ca         1 C7B       0.140600
     10 O05          6.3030     0.2930    -0.8080 os         1 C7B      -0.306600
     11 C17          5.2880    -0.4190    -0.0640 c3         1 C7B       0.073600
     12 C15          3.8820    -0.2610    -0.6890 c          1 C7B       0.603100
     13 O03          3.6550     0.3930    -1.7000 o          1 C7B      -0.563100
     14 N07          2.8760    -0.9250    -0.0150 ns         1 C7B      -0.511400
     15 C09          1.4560    -0.9240    -0.3850 c6         1 C7B       0.111700
     16 C14          0.7540    -2.1780     0.1970 c6         1 C7B      -0.088400
     17 C13          0.7550     0.3550     0.1420 c6         1 C7B      -0.088400
     18 C11         -0.7590     0.3490    -0.1880 c6         1 C7B      -0.088400
     19 N08         -2.8810    -0.9230     0.0210 ns         1 C7B      -0.511400
     20 C16         -3.8870    -0.2320     0.6680 c          1 C7B       0.603100
     21 O04         -3.6600     0.4630     1.6520 o          1 C7B      -0.563100
     22 C18         -5.2920    -0.4150     0.0500 c3         1 C7B       0.073600
     23 O06         -6.3080     0.3270     0.7650 os         1 C7B      -0.306600
     24 C20         -7.6350     0.3100     0.3880 ca         1 C7B       0.140600
     25 C22         -8.1020    -0.4300    -0.7220 ca         1 C7B      -0.162750
     26 C26         -9.4690    -0.4070    -1.0560 ca         1 C7B      -0.065750
     27 C30        -10.3700     0.3510    -0.2900 ca         1 C7B       0.083000
     28 Cl2        -12.0770     0.3770    -0.7110 cl         1 C7B      -0.203500
     29 C28         -9.9090     1.0880     0.8130 ca         1 C7B      -0.065750
     30 C24         -8.5430     1.0660     1.1490 ca         1 C7B      -0.162750
     31 H1          -1.2290    -3.0750     0.3020 hc         1 C7B       0.051200
     32 H2          -0.8950    -2.2650    -1.2260 hc         1 C7B       0.051200
     33 H3          -1.3820    -0.8900     1.4900 h1         1 C7B       0.079700
     34 H5           9.8270    -0.9020     1.9160 ha         1 C7B       0.129750
     35 H6          10.6030     1.6120    -1.5040 ha         1 C7B       0.129750
     36 H7           8.1810     1.5510    -2.0990 ha         1 C7B       0.127000
     37 H8           5.5140    -1.4920    -0.0310 h1         1 C7B       0.049200
     38 H9           5.2330    -0.0480     0.9670 h1         1 C7B       0.049200
     39 H10          3.1520    -1.4440     0.8110 hn         1 C7B       0.308500
     40 H11          1.3770    -0.9520    -1.4830 h1         1 C7B       0.079700
     41 H12          0.8900    -2.2140     1.2870 hc         1 C7B       0.051200
     42 H13          1.2230    -3.0860    -0.2070 hc         1 C7B       0.051200
     43 H14          0.8950     0.4380     1.2290 hc         1 C7B       0.051200
     44 H15          1.2220     1.2460    -0.3000 hc         1 C7B       0.051200
     45 H16         -0.8990     0.3860    -1.2770 hc         1 C7B       0.051200
     46 H17         -1.2260     1.2570     0.2170 hc         1 C7B       0.051200
     47 H18         -3.1570    -1.4750    -0.7820 hn         1 C7B       0.308500
     48 H19         -5.2380    -0.0860    -0.9950 h1         1 C7B       0.049200
     49 H20         -5.5190    -1.4880     0.0600 h1         1 C7B       0.049200
     50 H21         -7.4270    -1.0240    -1.3300 ha         1 C7B       0.127000
     51 H22         -9.8310    -0.9760    -1.9100 ha         1 C7B       0.129750
     52 H23        -10.6070     1.6740     1.4060 ha         1 C7B       0.129750
     53 H24         -8.1850     1.6360     2.0030 ha         1 C7B       0.127000
     54 H4           7.4220    -0.9730     1.3400 ha         1 C7B       0.127000
@<TRIPOS>BOND
     1     1     2 1   
     2     1    16 1   
     3     1    31 1   
     4     1    32 1   
     5     2    18 1   
     6     2    19 1   
     7     2    33 1   
     8     3     4 ar  
     9     3     9 ar  
    10     3    54 1   
    11     4     5 ar  
    12     4    34 1   
    13     5     6 1   
    14     5     7 ar  
    15     7     8 ar  
    16     7    35 1   
    17     8     9 ar  
    18     8    36 1   
    19     9    10 1   
    20    10    11 1   
    21    11    12 1   
    22    11    37 1   
    23    11    38 1   
    24    12    13 2   
    25    12    14 1   
    26    14    15 1   
    27    14    39 1   
    28    15    16 1   
    29    15    17 1   
    30    15    40 1   
    31    16    41 1   
    32    16    42 1   
    33    17    18 1   
    34    17    43 1   
    35    17    44 1   
    36    18    45 1   
    37    18    46 1   
    38    19    20 1   
    39    19    47 1   
    40    20    21 2   
    41    20    22 1   
    42    22    23 1   
    43    22    48 1   
    44    22    49 1   
    45    23    24 1   
    46    24    25 ar  
    47    24    30 ar  
    48    25    26 ar  
    49    25    50 1   
    50    26    27 ar  
    51    26    51 1   
    52    27    28 1   
    53    27    29 ar  
    54    29    30 ar  
    55    29    52 1   
    56    30    53 1   
@<TRIPOS>SUBSTRUCTURE
     1 C7B         1 TEMP              0 ****  ****    0 ROOT
