@<TRIPOS>MOLECULE
C7B
   54    56     1     0     0
SMALL
abcg2


@<TRIPOS>ATOM
      1 C12         -0.7430    -2.1950    -0.1550 c6         1 C7B      -0.088400
      2 C10         -1.4390    -0.9340     0.3450 c6         1 C7B       0.111700
      3 C21          7.8830    -0.3780     0.7010 ca         1 C7B      -0.162750
      4 C25          9.2340    -0.2760     1.0110 ca         1 C7B      -0.065750
      5 C29         10.0700     0.4860     0.2170 ca         1 C7B       0.083000
      6 CL1         11.7560     0.6090     0.6070 cl         1 C7B      -0.203500
      7 C27          9.5710     1.1540    -0.8940 ca         1 C7B      -0.065750
      8 C23          8.2280     1.0540    -1.2040 ca         1 C7B      -0.162750
      9 C19          7.3730     0.2880    -0.4100 ca         1 C7B       0.140600
     10 O05          6.0820     0.2550    -0.7930 os         1 C7B      -0.306600
     11 C17          5.1830    -0.5120    -0.0390 c3         1 C7B       0.073600
     12 C15          3.8080    -0.3870    -0.6820 c          1 C7B       0.603100
     13 O03          3.6380     0.1640    -1.7550 o          1 C7B      -0.563100
     14 N07          2.8350    -0.9610     0.0390 ns         1 C7B      -0.511400
     15 C09          1.4320    -0.9380    -0.3300 c6         1 C7B       0.111700
     16 C14          0.7400    -2.1890     0.1990 c6         1 C7B      -0.088400
     17 C13          0.7360     0.3240     0.1780 c6         1 C7B      -0.088400
     18 C11         -0.7440     0.3200    -0.1840 c6         1 C7B      -0.088400
     19 N08         -2.8400    -0.9660    -0.0290 ns         1 C7B      -0.511400
     20 C16         -3.8200    -0.3960     0.6860 c          1 C7B       0.603100
     21 O04         -3.6580     0.1640     1.7560 o          1 C7B      -0.563100
     22 C18         -5.1930    -0.5440     0.0440 c3         1 C7B       0.073600
     23 O06         -6.0880     0.2680     0.7540 os         1 C7B      -0.306600
     24 C20         -7.3770     0.2970     0.3610 ca         1 C7B       0.140600
     25 C22         -7.8910    -0.4250    -0.7110 ca         1 C7B      -0.162750
     26 C26         -9.2380    -0.3230    -1.0360 ca         1 C7B      -0.065750
     27 C30        -10.0670     0.4960    -0.2930 ca         1 C7B       0.083000
     28 CL2        -11.7490     0.6210    -0.7020 cl         1 C7B      -0.203500
     29 C28         -9.5650     1.2220     0.7790 ca         1 C7B      -0.065750
     30 C24         -8.2250     1.1210     1.1030 ca         1 C7B      -0.162750
     31 H1          -1.2220    -3.0770     0.2730 hc         1 C7B       0.051200
     32 H2          -0.8570    -2.2690    -1.2430 hc         1 C7B       0.051200
     33 H3          -1.3880    -0.9240     1.4370 h1         1 C7B       0.079700
     34 H5           9.6210    -0.7950     1.8780 ha         1 C7B       0.129750
     35 H6          10.2230     1.7510    -1.5170 ha         1 C7B       0.129750
     36 H7           7.8350     1.5710    -2.0700 ha         1 C7B       0.127000
     37 H8           5.4740    -1.5700    -0.0190 h1         1 C7B       0.049200
     38 H9           5.1330    -0.1690     1.0010 h1         1 C7B       0.049200
     39 H10          3.0630    -1.3260     0.9520 hn         1 C7B       0.308500
     40 H11          1.3770    -0.9500    -1.4220 h1         1 C7B       0.079700
     41 H12          0.8550    -2.2380     1.2880 hc         1 C7B       0.051200
     42 H13          1.2210    -3.0800    -0.2100 hc         1 C7B       0.051200
     43 H14          0.8540     0.3850     1.2650 hc         1 C7B       0.051200
     44 H15          1.2210     1.2070    -0.2420 hc         1 C7B       0.051200
     45 H16         -0.8620     0.3630    -1.2720 hc         1 C7B       0.051200
     46 H17         -1.2310     1.2090     0.2220 hc         1 C7B       0.051200
     47 H18         -3.0640    -1.3380    -0.9400 hn         1 C7B       0.308500
     48 H19         -5.1390    -0.2570    -1.0120 h1         1 C7B       0.049200
     49 H20         -5.4910    -1.5990     0.0810 h1         1 C7B       0.049200
     50 H21         -7.2670    -1.0740    -1.3110 ha         1 C7B       0.127000
     51 H22         -9.6280    -0.8870    -1.8730 ha         1 C7B       0.129750
     52 H23        -10.2120     1.8650     1.3600 ha         1 C7B       0.129750
     53 H24         -7.8280     1.6840     1.9390 ha         1 C7B       0.127000
     54 H4           7.2550    -0.9810     1.3410 ha         1 C7B       0.127000
@<TRIPOS>BOND
     1     1     2 1   
     2     1    16 1   
     3     1    31 1   
     4     1    32 1   
     5     2    18 1   
     6     2    19 1   
     7     2    33 1   
     8     3     4 ar  
     9     3     9 ar  
    10     3    54 1   
    11     4     5 ar  
    12     4    34 1   
    13     5     6 1   
    14     5     7 ar  
    15     7     8 ar  
    16     7    35 1   
    17     8     9 ar  
    18     8    36 1   
    19     9    10 1   
    20    10    11 1   
    21    11    12 1   
    22    11    37 1   
    23    11    38 1   
    24    12    13 2   
    25    12    14 1   
    26    14    15 1   
    27    14    39 1   
    28    15    16 1   
    29    15    17 1   
    30    15    40 1   
    31    16    41 1   
    32    16    42 1   
    33    17    18 1   
    34    17    43 1   
    35    17    44 1   
    36    18    45 1   
    37    18    46 1   
    38    19    20 1   
    39    19    47 1   
    40    20    21 2   
    41    20    22 1   
    42    22    23 1   
    43    22    48 1   
    44    22    49 1   
    45    23    24 1   
    46    24    25 ar  
    47    24    30 ar  
    48    25    26 ar  
    49    25    50 1   
    50    26    27 ar  
    51    26    51 1   
    52    27    28 1   
    53    27    29 ar  
    54    29    30 ar  
    55    29    52 1   
    56    30    53 1   
@<TRIPOS>SUBSTRUCTURE
     1 C7B         1 TEMP              0 ****  ****    0 ROOT
