@<TRIPOS>MOLECULE
C7G
   93    99     1     0     0
SMALL
No Charge or Current Charge


@<TRIPOS>ATOM
      1 N           -1.4410     1.3700    -2.4230 nb         1 C7G      -0.316000
      2 C           -1.8040     0.1430    -2.8670 ca         1 C7G       0.158900
      3 O           -4.1040    -3.0800     0.0070 os         1 C7G      -0.408000
      4 O22         -0.4930     6.4680    -0.4490 o          1 C7G      -0.928167
      5 P3           0.7480     5.6500    -0.3950 p5         1 C7G       1.367900
      6 O20          0.5940     4.3920    -1.1790 o          1 C7G      -0.928167
      7 O21          1.8490     6.4460    -1.0030 o          1 C7G      -0.928167
      8 O19          1.1810     5.3210     1.0820 os         1 C7G      -0.720800
      9 O17         -0.9880     3.9380     1.5450 o          1 C7G      -0.879000
     10 O18         -0.5000     5.9710     2.8830 o          1 C7G      -0.879000
     11 C24          1.3090     2.5700     2.8210 c3         1 C7G       0.231600
     12 C23          2.0710     2.3310     1.4820 c5         1 C7G       0.115300
     13 O14          3.5000     2.5230     1.6480 os         1 C7G      -0.411000
     14 C20          4.1630     1.8750     0.5370 c5         1 C7G       0.292300
     15 N8           4.9130     2.8640    -0.2340 na         1 C7G      -0.272300
     16 C16          6.2730     2.9930    -0.2810 ca         1 C7G       0.115500
     17 N6           7.2640     2.3760     0.3950 nb         1 C7G      -0.200000
     18 C15          8.5220     2.7660     0.0770 ca         1 C7G       0.145900
     19 C19          4.3720     3.7690    -1.1550 cc         1 C7G       0.462700
     20 N9           5.3440     4.4530    -1.7980 nd         1 C7G      -0.610100
     21 C17          6.5210     3.9500    -1.2320 ca         1 C7G      -0.091600
     22 C18          7.8650     4.2880    -1.5000 ca         1 C7G       0.427900
     23 N7           8.2220     5.2220    -2.4200 nv         1 C7G      -1.087900
     24 N5           8.8750     3.6980    -0.8420 nb         1 C7G      -0.336000
     25 C22          1.9720     0.8910     0.9070 c5         1 C7G       0.129300
     26 O15          2.2920    -0.1190     1.8820 oh         1 C7G      -0.701000
     27 C21          3.0590     1.0520    -0.2110 c5         1 C7G       0.144300
     28 O13          3.6130    -0.2370    -0.6220 os         1 C7G      -0.442000
     29 C12          2.6320    -1.0740    -1.2800 c5         1 C7G       0.369300
     30 O10          1.9050    -1.8100    -0.2840 os         1 C7G      -0.398000
     31 C13          3.3870    -2.1830    -2.0840 c5         1 C7G       0.097300
     32 O12          4.4370    -2.8160    -1.3220 oh         1 C7G      -0.736000
     33 C14          2.1540    -3.1160    -2.3080 c5         1 C7G       0.118300
     34 O11          1.2810    -2.5920    -3.3270 oh         1 C7G      -0.687000
     35 C11          1.5140    -3.0860    -0.8640 c5         1 C7G       0.178300
     36 C10         -0.0330    -3.2220    -0.8170 c3         1 C7G       0.243600
     37 O8          -0.4360    -3.7140     0.4750 os         1 C7G      -0.584400
     38 P1          -0.7540    -5.2860     0.6490 p5         1 C7G       1.472800
     39 O7          -0.8790    -5.6020     2.1050 o          1 C7G      -0.859500
     40 O9           0.3000    -6.1030    -0.0280 o          1 C7G      -0.859500
     41 O6          -2.1280    -5.2320    -0.1100 os         1 C7G      -0.697800
     42 P           -2.9810    -6.5480    -0.1490 p5         1 C7G       1.463800
     43 O4          -3.4810    -7.0170     1.1770 o          1 C7G      -0.863000
     44 O5          -2.3320    -7.6420    -0.9320 o          1 C7G      -0.863000
     45 O3          -4.2040    -5.9360    -1.0110 os         1 C7G      -0.573400
     46 C8          -4.9170    -4.1130     0.6060 c5         1 C7G       0.132300
     47 C7          -6.0830    -3.2760     1.2290 c5         1 C7G       0.087300
     48 O2          -7.2670    -4.0330     1.5540 oh         1 C7G      -0.713000
     49 C6          -6.3780    -2.2310     0.1070 c5         1 C7G       0.086300
     50 O1          -7.3700    -2.7690    -0.7780 oh         1 C7G      -0.712000
     51 C5          -4.9520    -2.0530    -0.5560 c5         1 C7G       0.330300
     52 N3          -4.2680    -0.7670    -0.3720 na         1 C7G      -0.329300
     53 C1          -3.3110    -0.2300    -1.1870 ca         1 C7G       0.107500
     54 N1          -2.7200    -0.6840    -2.3100 nb         1 C7G      -0.349000
     55 C4          -4.4870     0.1440     0.6670 cc         1 C7G       0.343700
     56 N4          -3.7320     1.2490     0.5220 nd         1 C7G      -0.519100
     57 C2          -3.0040     0.9930    -0.6420 ca         1 C7G      -0.124600
     58 C3          -2.0490     1.7960    -1.3030 ca         1 C7G       0.426900
     59 N2          -1.7170     3.0390    -0.8870 nv         1 C7G      -0.979900
     60 H1          -1.3150    -0.2100    -3.7730 h5         1 C7G      -0.012900
     61 H7           1.7110     3.0220     0.7160 h1         1 C7G       0.061700
     62 H8           4.9080     1.1780     0.9410 h2         1 C7G       0.103700
     63 H9           9.3340     2.2780     0.6140 h5         1 C7G       0.031100
     64 H10          3.3030     3.8720    -1.3140 h5         1 C7G       0.116800
     65 H11          7.4790     5.8230    -2.7680 hn         1 C7G       0.490000
     66 H12          9.1520     5.6290    -2.3580 hn         1 C7G       0.490000
     67 H13          0.9770     0.7110     0.4730 h1         1 C7G       0.079700
     68 H14          2.3100    -0.9650     1.3670 ho         1 C7G       0.524000
     69 H15          2.6690     1.5860    -1.0870 h1         1 C7G       0.040700
     70 H16          1.9590    -0.4930    -1.9240 h2         1 C7G       0.045700
     71 H17          3.7860    -1.7950    -3.0310 h1         1 C7G       0.014700
     72 H18          4.7850    -2.1080    -0.7250 ho         1 C7G       0.545000
     73 H19          2.4650    -4.1350    -2.5750 h1         1 C7G       0.035700
     74 H20          1.6920    -2.7980    -4.1980 ho         1 C7G       0.469000
     75 H21          1.9570    -3.8830    -0.2540 h1         1 C7G       0.061700
     76 H22         -0.4950    -2.2460    -1.0190 h1         1 C7G       0.027200
     77 H23         -0.3550    -3.9080    -1.6120 h1         1 C7G       0.027200
     78 H28         -4.3440    -4.5920     1.4090 h1         1 C7G       0.119700
     79 H29         -5.7140    -2.7520     2.1240 h1         1 C7G       0.060700
     80 H30         -7.1250    -4.4500     2.4370 ho         1 C7G       0.481000
     81 H31         -6.7470    -1.2910     0.5390 h1         1 C7G       0.066700
     82 H32         -7.8300    -3.4310    -0.2010 ho         1 C7G       0.496000
     83 H33         -5.0380    -2.1970    -1.6410 h2         1 C7G       0.100700
     84 H34         -5.1850    -0.0440     1.4750 h5         1 C7G       0.073800
     85 H35         -0.8330     3.4460    -1.2350 hn         1 C7G       0.579500
     86 H36         -1.7500     3.2250     0.1260 hn         1 C7G       0.579500
     87 H5           1.8980     2.1480     3.6460 h1         1 C7G       0.035700
     88 O16          1.0400     3.9690     3.0640 os         1 C7G      -0.585400
     89 C9          -5.3240    -5.2110    -0.4460 c3         1 C7G       0.241600
     90 H6           0.3630     2.0120     2.7860 h1         1 C7G       0.035700
     91 H26         -5.8830    -4.7400    -1.2630 h1         1 C7G       0.013200
     92 P2           0.0730     4.8330     2.1000 p5         1 C7G       1.476800
     93 H27         -6.0080    -5.9200     0.0390 h1         1 C7G       0.013200
@<TRIPOS>BOND
     1     1     2 ar  
     2     1    58 ar  
     3     2    54 ar  
     4     2    60 1   
     5     3    46 1   
     6     3    51 1   
     7     4     5 1   
     8     5     6 1   
     9     5     7 1   
    10     5     8 1   
    11     8    92 1   
    12     9    92 1   
    13    10    92 1   
    14    11    12 1   
    15    11    87 1   
    16    11    88 1   
    17    11    90 1   
    18    12    13 1   
    19    12    25 1   
    20    12    61 1   
    21    13    14 1   
    22    14    15 1   
    23    14    27 1   
    24    14    62 1   
    25    15    16 1   
    26    15    19 1   
    27    16    17 ar  
    28    16    21 ar  
    29    17    18 ar  
    30    18    24 ar  
    31    18    63 1   
    32    19    20 2   
    33    19    64 1   
    34    20    21 1   
    35    21    22 ar  
    36    22    23 1   
    37    22    24 ar  
    38    23    65 1   
    39    23    66 1   
    40    25    26 1   
    41    25    27 1   
    42    25    67 1   
    43    26    68 1   
    44    27    28 1   
    45    27    69 1   
    46    28    29 1   
    47    29    30 1   
    48    29    31 1   
    49    29    70 1   
    50    30    35 1   
    51    31    32 1   
    52    31    33 1   
    53    31    71 1   
    54    32    72 1   
    55    33    34 1   
    56    33    35 1   
    57    33    73 1   
    58    34    74 1   
    59    35    36 1   
    60    35    75 1   
    61    36    37 1   
    62    36    76 1   
    63    36    77 1   
    64    37    38 1   
    65    38    39 1   
    66    38    40 1   
    67    38    41 1   
    68    41    42 1   
    69    42    43 1   
    70    42    44 1   
    71    42    45 1   
    72    45    89 1   
    73    46    47 1   
    74    46    78 1   
    75    46    89 1   
    76    47    48 1   
    77    47    49 1   
    78    47    79 1   
    79    48    80 1   
    80    49    50 1   
    81    49    51 1   
    82    49    81 1   
    83    50    82 1   
    84    51    52 1   
    85    51    83 1   
    86    52    53 1   
    87    52    55 1   
    88    53    54 ar  
    89    53    57 ar  
    90    55    56 2   
    91    55    84 1   
    92    56    57 1   
    93    57    58 ar  
    94    58    59 1   
    95    59    85 1   
    96    59    86 1   
    97    88    92 1   
    98    89    91 1   
    99    89    93 1   
@<TRIPOS>SUBSTRUCTURE
     1 C7G         1 TEMP              0 ****  ****    0 ROOT
