@<TRIPOS>MOLECULE
C7G
   93    99     1     0     0
SMALL
abcg2


@<TRIPOS>ATOM
      1 N           -4.1030     3.7260    -1.7230 nb         1 C7G      -0.316000
      2 C           -4.3960     2.8110    -2.6390 ca         1 C7G       0.158900
      3 O           -3.0720    -2.4420    -1.1160 os         1 C7G      -0.408000
      4 O22         -2.6790     7.6730     2.7640 o          1 C7G      -0.928167
      5 P3          -2.1800     7.5360     1.3380 p5         1 C7G       1.367900
      6 O20         -3.1960     6.9280     0.3570 o          1 C7G      -0.928167
      7 O21         -1.4430     8.7340     0.7680 o          1 C7G      -0.928167
      8 O19         -0.9330     6.3550     1.4100 os         1 C7G      -0.720800
      9 O17         -1.9640     4.4610     2.8800 o          1 C7G      -0.879000
     10 O18          0.1350     5.7500     3.6620 o          1 C7G      -0.879000
     11 C24          0.2480     2.8740     1.8460 c3         1 C7G       0.231600
     12 C23          1.1210     2.2070     0.8150 c5         1 C7G       0.115300
     13 O14          2.4760     2.6590     0.9610 os         1 C7G      -0.411000
     14 C20          3.3610     1.6630     0.5730 c5         1 C7G       0.292300
     15 N8           4.2100     2.1700    -0.4990 na         1 C7G      -0.272300
     16 C16          5.4220     1.6820    -0.8890 ca         1 C7G       0.115500
     17 N6           6.1070     0.6380    -0.4140 nb         1 C7G      -0.200000
     18 C15          7.2660     0.4780    -1.0360 ca         1 C7G       0.145900
     19 C19          3.9500     3.2440    -1.3070 cc         1 C7G       0.462700
     20 N9           4.8950     3.4820    -2.1690 nd         1 C7G      -0.610100
     21 C17          5.8300     2.5140    -1.9220 ca         1 C7G      -0.091600
     22 C18          7.0830     2.2390    -2.5000 ca         1 C7G       0.427900
     23 N7           7.5880     2.9620    -3.4970 nv         1 C7G      -1.087900
     24 N5           7.7820     1.2020    -2.0200 nb         1 C7G      -0.336000
     25 C22          1.2090     0.6850     0.9100 c5         1 C7G       0.129300
     26 O15          1.3930     0.2130     2.2160 oh         1 C7G      -0.701000
     27 C21          2.5050     0.4650     0.1330 c5         1 C7G       0.144300
     28 O13          3.1890    -0.7160     0.4000 os         1 C7G      -0.442000
     29 C12          3.0530    -1.7770    -0.4910 c5         1 C7G       0.369300
     30 O10          2.4190    -2.8560     0.1410 os         1 C7G      -0.398000
     31 C13          4.4440    -2.2830    -0.9280 c5         1 C7G       0.097300
     32 O12          5.4040    -2.0970     0.0700 oh         1 C7G      -0.736000
     33 C14          4.1830    -3.7770    -1.0860 c5         1 C7G       0.118300
     34 O11          3.5070    -4.0450    -2.2910 oh         1 C7G      -0.687000
     35 C11          3.2320    -4.0250     0.0770 c5         1 C7G       0.178300
     36 C10          2.3730    -5.2580    -0.0690 c3         1 C7G       0.243600
     37 O8           1.7050    -5.4930     1.1570 os         1 C7G      -0.584400
     38 P1           0.5000    -6.6040     1.2030 p5         1 C7G       1.472800
     39 O7           0.2190    -6.8590     2.6480 o          1 C7G      -0.859500
     40 O9           0.8060    -7.7130     0.2470 o          1 C7G      -0.859500
     41 O6          -0.6900    -5.6530     0.5700 os         1 C7G      -0.697800
     42 P           -2.2900    -5.9430     0.7710 p5         1 C7G       1.463800
     43 O4          -2.8220    -5.1760     1.9420 o          1 C7G      -0.863000
     44 O5          -2.5580    -7.4110     0.6510 o          1 C7G      -0.863000
     45 O3          -2.7250    -5.1860    -0.6250 os         1 C7G      -0.573400
     46 C8          -4.0110    -3.1670    -0.3100 c5         1 C7G       0.132300
     47 C7          -5.3500    -2.4300    -0.4880 c5         1 C7G       0.087300
     48 O2          -6.4330    -3.3200    -0.5050 oh         1 C7G      -0.713000
     49 C6          -5.1630    -1.6800    -1.8120 c5         1 C7G       0.086300
     50 O1          -5.3820    -2.5130    -2.9160 oh         1 C7G      -0.712000
     51 C5          -3.6740    -1.3650    -1.7520 c5         1 C7G       0.330300
     52 N3          -3.4360    -0.1420    -0.9880 na         1 C7G      -0.329300
     53 C1          -3.7300     1.1230    -1.4070 ca         1 C7G       0.107500
     54 N1          -4.2550     1.4960    -2.5770 nb         1 C7G      -0.349000
     55 C4          -2.9050    -0.0160     0.2670 cc         1 C7G       0.343700
     56 N4          -2.8480     1.2190     0.6760 nd         1 C7G      -0.519100
     57 C2          -3.3630     1.9520    -0.3620 ca         1 C7G      -0.124600
     58 C3          -3.5810     3.3410    -0.5400 ca         1 C7G       0.426900
     59 N2          -3.3140     4.2380     0.3870 nv         1 C7G      -0.979900
     60 H1          -4.8120     3.1970    -3.5640 h5         1 C7G      -0.012900
     61 H7           0.7520     2.4730    -0.1860 h1         1 C7G       0.061700
     62 H8           4.0250     1.3840     1.3970 h2         1 C7G       0.103700
     63 H9           7.8720    -0.3570    -0.7010 h5         1 C7G       0.031100
     64 H10          3.0470     3.8260    -1.2080 h5         1 C7G       0.116800
     65 H11          7.1000     3.7640    -3.8540 hn         1 C7G       0.490000
     66 H12          8.5030     2.7580    -3.8610 hn         1 C7G       0.490000
     67 H13          0.3540     0.2130     0.4140 h1         1 C7G       0.079700
     68 H14          0.5410     0.1740     2.6600 ho         1 C7G       0.524000
     69 H15          2.2790     0.5650    -0.9370 h1         1 C7G       0.040700
     70 H16          2.4570    -1.4650    -1.3590 h2         1 C7G       0.045700
     71 H17          4.7440    -1.8160    -1.8760 h1         1 C7G       0.014700
     72 H18          5.5670    -1.1380     0.1410 ho         1 C7G       0.545000
     73 H19          5.1010    -4.3700    -0.9890 h1         1 C7G       0.035700
     74 H20          4.1040    -3.8560    -3.0210 ho         1 C7G       0.469000
     75 H21          3.8310    -4.1180     0.9930 h1         1 C7G       0.061700
     76 H22          1.6660    -5.1210    -0.8930 h1         1 C7G       0.027200
     77 H23          3.0180    -6.1060    -0.3250 h1         1 C7G       0.027200
     78 H28         -3.6790    -3.1170     0.7300 h1         1 C7G       0.119700
     79 H29         -5.4640    -1.6950     0.3180 h1         1 C7G       0.060700
     80 H30         -7.2380    -2.8270    -0.3140 ho         1 C7G       0.481000
     81 H31         -5.7770    -0.7720    -1.8610 h1         1 C7G       0.066700
     82 H32         -6.1540    -3.0600    -2.7230 ho         1 C7G       0.496000
     83 H33         -3.2370    -1.2260    -2.7440 h2         1 C7G       0.100700
     84 H34         -2.5700    -0.8680     0.8370 h5         1 C7G       0.073800
     85 H35         -3.3540     5.2680     0.2290 hn         1 C7G       0.579500
     86 H36         -2.8540     3.9810     1.2590 hn         1 C7G       0.579500
     87 H5           0.6340     2.6620     2.8510 h1         1 C7G       0.035700
     88 O16          0.2270     4.2550     1.5780 os         1 C7G      -0.585400
     89 C9          -4.0190    -4.6260    -0.7320 c3         1 C7G       0.241600
     90 H6          -0.7530     2.4350     1.7710 h1         1 C7G       0.035700
     91 H26         -4.3260    -4.7240    -1.7760 h1         1 C7G       0.013200
     92 P2          -0.7130     5.2340     2.5360 p5         1 C7G       1.476800
     93 H27         -4.7530    -5.1650    -0.1260 h1         1 C7G       0.013200
@<TRIPOS>BOND
     1     1     2 ar  
     2     1    58 ar  
     3     2    54 ar  
     4     2    60 1   
     5     3    46 1   
     6     3    51 1   
     7     4     5 1   
     8     5     6 1   
     9     5     7 1   
    10     5     8 1   
    11     8    92 1   
    12     9    92 1   
    13    10    92 1   
    14    11    12 1   
    15    11    87 1   
    16    11    88 1   
    17    11    90 1   
    18    12    13 1   
    19    12    25 1   
    20    12    61 1   
    21    13    14 1   
    22    14    15 1   
    23    14    27 1   
    24    14    62 1   
    25    15    16 1   
    26    15    19 1   
    27    16    17 ar  
    28    16    21 ar  
    29    17    18 ar  
    30    18    24 ar  
    31    18    63 1   
    32    19    20 2   
    33    19    64 1   
    34    20    21 1   
    35    21    22 ar  
    36    22    23 1   
    37    22    24 ar  
    38    23    65 1   
    39    23    66 1   
    40    25    26 1   
    41    25    27 1   
    42    25    67 1   
    43    26    68 1   
    44    27    28 1   
    45    27    69 1   
    46    28    29 1   
    47    29    30 1   
    48    29    31 1   
    49    29    70 1   
    50    30    35 1   
    51    31    32 1   
    52    31    33 1   
    53    31    71 1   
    54    32    72 1   
    55    33    34 1   
    56    33    35 1   
    57    33    73 1   
    58    34    74 1   
    59    35    36 1   
    60    35    75 1   
    61    36    37 1   
    62    36    76 1   
    63    36    77 1   
    64    37    38 1   
    65    38    39 1   
    66    38    40 1   
    67    38    41 1   
    68    41    42 1   
    69    42    43 1   
    70    42    44 1   
    71    42    45 1   
    72    45    89 1   
    73    46    47 1   
    74    46    78 1   
    75    46    89 1   
    76    47    48 1   
    77    47    49 1   
    78    47    79 1   
    79    48    80 1   
    80    49    50 1   
    81    49    51 1   
    82    49    81 1   
    83    50    82 1   
    84    51    52 1   
    85    51    83 1   
    86    52    53 1   
    87    52    55 1   
    88    53    54 ar  
    89    53    57 ar  
    90    55    56 2   
    91    55    84 1   
    92    56    57 1   
    93    57    58 ar  
    94    58    59 1   
    95    59    85 1   
    96    59    86 1   
    97    88    92 1   
    98    89    91 1   
    99    89    93 1   
@<TRIPOS>SUBSTRUCTURE
     1 C7G         1 TEMP              0 ****  ****    0 ROOT
