@<TRIPOS>MOLECULE
C7H
   43    46     1     0     0
SMALL
No Charge or Current Charge


@<TRIPOS>ATOM
      1 N           -3.9690    -0.1460    -0.3810 n3         1 C7H      -0.721600
      2 C17         -2.1930     1.0950     0.9030 c6         1 C7H      -0.046200
      3 C18         -3.4000     0.1270     0.9690 c6         1 C7H       0.170800
      4 C21         -5.1860    -0.9830    -0.3160 c3         1 C7H       0.155100
      5 C19         -2.9410    -0.7150    -1.2960 c6         1 C7H       0.170800
      6 C20         -1.7240     0.2290    -1.4510 c6         1 C7H      -0.046200
      7 C16         -1.1520     0.6090    -0.0950 c2         1 C7H      -0.077400
      8 C5           0.1550     0.4100     0.2160 cc         1 C7H      -0.048000
      9 C13          1.1160     1.4830     0.0550 ca         1 C7H      -0.013000
     10 C4           0.9790     2.6450     0.8430 ca         1 C7H      -0.103500
     11 C3           1.8740     3.7160     0.7030 ca         1 C7H      -0.108500
     12 C2           2.9120     3.6350    -0.2360 ca         1 C7H      -0.111500
     13 C1           3.0480     2.4830    -1.0280 ca         1 C7H      -0.102000
     14 C12          2.1630     1.3940    -0.8880 ca         1 C7H      -0.031000
     15 C11          2.3640     0.2550    -1.7880 cc         1 C7H      -0.092000
     16 C10          2.2290    -1.0590    -1.3740 cd         1 C7H      -0.092000
     17 C15          1.5850    -1.6080    -0.1650 ca         1 C7H      -0.031000
     18 C14          0.6230    -0.9120     0.6020 ca         1 C7H      -0.013000
     19 C6           0.0340    -1.5390     1.7200 ca         1 C7H      -0.103500
     20 C7           0.3860    -2.8480     2.0770 ca         1 C7H      -0.108500
     21 C8           1.3190    -3.5510     1.3050 ca         1 C7H      -0.111500
     22 C9           1.9050    -2.9370     0.1870 ca         1 C7H      -0.102000
     23 H2          -2.5430     2.0930     0.6050 hc         1 C7H       0.060200
     24 H3          -1.7520     1.2050     1.9020 hc         1 C7H       0.060200
     25 H4          -4.1660     0.5640     1.6260 h1         1 C7H       0.030450
     26 H5          -3.0740    -0.8150     1.4360 h1         1 C7H       0.030450
     27 H6          -4.9580    -1.9750     0.0980 h1         1 C7H       0.029367
     28 H7          -5.9480    -0.5120     0.3190 h1         1 C7H       0.029367
     29 H8          -5.6170    -1.1190    -1.3170 h1         1 C7H       0.029367
     30 H9          -2.5890    -1.6850    -0.9130 h1         1 C7H       0.030450
     31 H10         -3.3730    -0.8980    -2.2910 h1         1 C7H       0.030450
     32 H11         -0.9560    -0.2530    -2.0700 hc         1 C7H       0.060200
     33 H12         -2.0320     1.1390    -1.9840 hc         1 C7H       0.060200
     34 H13          0.1750     2.7170     1.5700 ha         1 C7H       0.114000
     35 H14          1.7610     4.6060     1.3170 ha         1 C7H       0.113000
     36 H15          3.6070     4.4630    -0.3530 ha         1 C7H       0.113000
     37 H16          3.8530     2.4360    -1.7580 ha         1 C7H       0.111000
     38 H17          2.8340     0.4240    -2.7520 ha         1 C7H       0.105000
     39 H18          2.5920    -1.7950    -2.0830 ha         1 C7H       0.105000
     40 H19         -0.7070    -1.0090     2.3130 ha         1 C7H       0.114000
     41 H20         -0.0740    -3.3210     2.9430 ha         1 C7H       0.113000
     42 H21          1.5880    -4.5720     1.5690 ha         1 C7H       0.113000
     43 H22          2.6250    -3.4960    -0.4050 ha         1 C7H       0.111000
@<TRIPOS>BOND
     1     1     3 1   
     2     1     4 1   
     3     1     5 1   
     4     2     3 1   
     5     2     7 1   
     6     2    23 1   
     7     2    24 1   
     8     3    25 1   
     9     3    26 1   
    10     4    27 1   
    11     4    28 1   
    12     4    29 1   
    13     5     6 1   
    14     5    30 1   
    15     5    31 1   
    16     6     7 1   
    17     6    32 1   
    18     6    33 1   
    19     7     8 2   
    20     8     9 1   
    21     8    18 1   
    22     9    10 ar  
    23     9    14 ar  
    24    10    11 ar  
    25    10    34 1   
    26    11    12 ar  
    27    11    35 1   
    28    12    13 ar  
    29    12    36 1   
    30    13    14 ar  
    31    13    37 1   
    32    14    15 1   
    33    15    16 2   
    34    15    38 1   
    35    16    17 1   
    36    16    39 1   
    37    17    18 ar  
    38    17    22 ar  
    39    18    19 ar  
    40    19    20 ar  
    41    19    40 1   
    42    20    21 ar  
    43    20    41 1   
    44    21    22 ar  
    45    21    42 1   
    46    22    43 1   
@<TRIPOS>SUBSTRUCTURE
     1 C7H         1 TEMP              0 ****  ****    0 ROOT
