@<TRIPOS>MOLECULE
C7H
   43    46     1     0     0
SMALL
abcg2


@<TRIPOS>ATOM
      1 N           -4.0250     0.0180    -0.4230 n3         1 C7H      -0.721600
      2 C17         -1.9450     1.2440    -0.8880 c6         1 C7H      -0.046200
      3 C18         -3.2670     1.2150    -0.1220 c6         1 C7H       0.170800
      4 C21         -5.3080     0.0230     0.2410 c3         1 C7H       0.155100
      5 C19         -3.2780    -1.1880    -0.1240 c6         1 C7H       0.170800
      6 C20         -1.9570    -1.2270    -0.8900 c6         1 C7H      -0.046200
      7 C16         -1.1570     0.0040    -0.5850 c2         1 C7H      -0.077400
      8 C5           0.0830    -0.0030    -0.0770 cc         1 C7H      -0.048000
      9 C13          0.8400     1.2340     0.2240 ca         1 C7H      -0.013000
     10 C4           0.4110     2.1060     1.2240 ca         1 C7H      -0.103500
     11 C3           1.0770     3.2950     1.4720 ca         1 C7H      -0.108500
     12 C2           2.1900     3.6330     0.7100 ca         1 C7H      -0.111500
     13 C1           2.6350     2.7680    -0.2740 ca         1 C7H      -0.102000
     14 C12          1.9910     1.5490    -0.5140 ca         1 C7H      -0.031000
     15 C11          2.5530     0.6590    -1.5240 cc         1 C7H      -0.092000
     16 C10          2.5470    -0.6840    -1.5260 cd         1 C7H      -0.092000
     17 C15          1.9760    -1.5720    -0.5190 ca         1 C7H      -0.031000
     18 C14          0.8280    -1.2470     0.2200 ca         1 C7H      -0.013000
     19 C6           0.3900    -2.1170     1.2180 ca         1 C7H      -0.103500
     20 C7           1.0440    -3.3140     1.4630 ca         1 C7H      -0.108500
     21 C8           2.1540    -3.6610     0.7000 ca         1 C7H      -0.111500
     22 C9           2.6070    -2.7980    -0.2810 ca         1 C7H      -0.102000
     23 H2          -2.1670     1.2690    -1.9600 hc         1 C7H       0.060200
     24 H3          -1.4080     2.1590    -0.6490 hc         1 C7H       0.060200
     25 H4          -3.8660     2.0860    -0.3980 h1         1 C7H       0.030450
     26 H5          -3.0550     1.3050     0.9600 h1         1 C7H       0.030450
     27 H6          -5.2270     0.0240     1.3400 h1         1 C7H       0.029367
     28 H7          -5.8770     0.9070    -0.0510 h1         1 C7H       0.029367
     29 H8          -5.8840    -0.8570    -0.0490 h1         1 C7H       0.029367
     30 H9          -3.0670    -1.2810     0.9580 h1         1 C7H       0.030450
     31 H10         -3.8860    -2.0520    -0.4010 h1         1 C7H       0.030450
     32 H11         -1.4290    -2.1490    -0.6530 hc         1 C7H       0.060200
     33 H12         -2.1790    -1.2480    -1.9620 hc         1 C7H       0.060200
     34 H13         -0.4700     1.8500     1.8000 ha         1 C7H       0.114000
     35 H14          0.7200     3.9630     2.2450 ha         1 C7H       0.113000
     36 H15          2.7080     4.5670     0.8850 ha         1 C7H       0.113000
     37 H16          3.5070     3.0290    -0.8620 ha         1 C7H       0.111000
     38 H17          3.1220     1.1470    -2.3090 ha         1 C7H       0.105000
     39 H18          3.1110    -1.1760    -2.3120 ha         1 C7H       0.105000
     40 H19         -0.4890    -1.8540     1.7940 ha         1 C7H       0.114000
     41 H20          0.6800    -3.9800     2.2340 ha         1 C7H       0.113000
     42 H21          2.6620    -4.6010     0.8720 ha         1 C7H       0.113000
     43 H22          3.4760    -3.0670    -0.8710 ha         1 C7H       0.111000
@<TRIPOS>BOND
     1     1     3 1   
     2     1     4 1   
     3     1     5 1   
     4     2     3 1   
     5     2     7 1   
     6     2    23 1   
     7     2    24 1   
     8     3    25 1   
     9     3    26 1   
    10     4    27 1   
    11     4    28 1   
    12     4    29 1   
    13     5     6 1   
    14     5    30 1   
    15     5    31 1   
    16     6     7 1   
    17     6    32 1   
    18     6    33 1   
    19     7     8 2   
    20     8     9 1   
    21     8    18 1   
    22     9    10 ar  
    23     9    14 ar  
    24    10    11 ar  
    25    10    34 1   
    26    11    12 ar  
    27    11    35 1   
    28    12    13 ar  
    29    12    36 1   
    30    13    14 ar  
    31    13    37 1   
    32    14    15 1   
    33    15    16 2   
    34    15    38 1   
    35    16    17 1   
    36    16    39 1   
    37    17    18 ar  
    38    17    22 ar  
    39    18    19 ar  
    40    19    20 ar  
    41    19    40 1   
    42    20    21 ar  
    43    20    41 1   
    44    21    22 ar  
    45    21    42 1   
    46    22    43 1   
@<TRIPOS>SUBSTRUCTURE
     1 C7H         1 TEMP              0 ****  ****    0 ROOT
