@<TRIPOS>MOLECULE
C7J
   75    78     1     0     0
SMALL
No Charge or Current Charge


@<TRIPOS>ATOM
      1 CBN         -5.7330     0.6640    -1.4460 c5         1 C7J      -0.147700
      2 CBI         -5.4090    -0.8580    -1.6330 c5         1 C7J       0.123300
      3 Cl          -6.8870    -1.9100    -1.4650 cl         1 C7J      -0.282000
      4 CAT         -4.8180    -0.8660    -3.0690 c5         1 C7J       0.147600
      5 OAZ         -5.6670     0.0650    -3.7680 os         1 C7J      -0.425000
      6 CBM         -5.8360     1.2070    -2.9080 c5         1 C7J       0.375300
      7 OBA         -4.7010     2.0730    -3.0880 os         1 C7J      -0.457000
      8 CAU         -4.4150     2.6650    -1.8060 c5         1 C7J       0.136600
      9 CBK         -4.5250     1.4620    -0.8230 c5         1 C7J       0.162300
     10 OBB         -3.2940     0.6840    -0.8900 os         1 C7J      -0.462100
     11 CBC         -2.2330     1.2260    -0.2210 c          1 C7J       0.641100
     12 OAD         -2.2330     2.2650     0.4210 o          1 C7J      -0.532000
     13 NAY         -1.1610     0.3950    -0.3740 ns         1 C7J      -0.477900
     14 CBJ          0.1430     0.5620     0.2800 c3         1 C7J       0.088700
     15 CAV          0.2620    -0.4070     1.4930 c3         1 C7J      -0.061100
     16 CBE         -0.9130    -0.2950     2.4600 ca         1 C7J      -0.089300
     17 CAN         -1.9620    -1.2340     2.4210 ca         1 C7J      -0.102500
     18 CAL         -3.0530    -1.1170     3.3000 ca         1 C7J      -0.108000
     19 CAK         -3.1000    -0.0600     4.2240 ca         1 C7J      -0.106000
     20 CAM         -2.0560     0.8800     4.2690 ca         1 C7J      -0.108000
     21 CAO         -0.9660     0.7630     3.3890 ca         1 C7J      -0.102500
     22 CBH          1.2850     0.4440    -0.7760 c3         1 C7J       0.146300
     23 OAG          1.3480    -0.8810    -1.3300 oh         1 C7J      -0.653000
     24 CAX          2.7000     0.8090    -0.2500 c3         1 C7J       0.193800
     25 NBL          3.7920     0.3550    -1.1590 n3         1 C7J      -0.789500
     26 CAW          3.8360     0.9540    -2.5260 c3         1 C7J       0.234800
     27 CBG          3.6870     2.5010    -2.6610 c3         1 C7J      -0.080700
     28 CAB          4.7750     3.3170    -1.9260 c3         1 C7J      -0.091600
     29 CAA          3.6300     2.9040    -4.1540 c3         1 C7J      -0.091600
     30 SBO          5.2890    -0.0060    -0.4240 sy         1 C7J       1.204600
     31 OAE          6.0610    -0.7430    -1.4300 o          1 C7J      -0.546000
     32 OAF          5.7950     1.2110     0.2130 o          1 C7J      -0.546000
     33 CBF          4.7960    -1.2050     0.8180 ca         1 C7J      -0.370500
     34 CAR          4.3440    -2.4760     0.4150 ca         1 C7J       0.036500
     35 CAP          3.9330    -3.4080     1.3830 ca         1 C7J      -0.222000
     36 CBD          3.9720    -3.0750     2.7400 ca         1 C7J       0.371000
     37 NAC          3.5750    -3.9850     3.6750 nv         1 C7J      -1.091000
     38 CAQ          4.4190    -1.8120     3.1430 ca         1 C7J      -0.222000
     39 CAS          4.8330    -0.8710     2.1860 ca         1 C7J       0.036500
     40 HBN         -6.6580     0.8330    -0.8840 hc         1 C7J       0.096700
     41 HBI         -4.7120    -1.2600    -0.8860 h1         1 C7J       0.098700
     42 HBM         -6.7780     1.7360    -3.1060 h2         1 C7J       0.091700
     43 HBK         -4.7250     1.7670     0.2140 h1         1 C7J       0.090700
     44 HAT1        -3.7790    -0.5090    -3.0980 h1         1 C7J       0.071700
     45 HAT2        -4.8660    -1.8540    -3.5450 h1         1 C7J       0.071700
     46 HAU1        -3.4240     3.1360    -1.8200 h1         1 C7J       0.066700
     47 HAU2        -5.1680     3.4340    -1.5860 h1         1 C7J       0.066700
     48 HAY         -1.3120    -0.4260    -0.9440 hn         1 C7J       0.327500
     49 HBJ          0.1880     1.5850     0.6800 h1         1 C7J       0.090700
     50 HAV1         0.3440    -1.4370     1.1260 hc         1 C7J       0.054700
     51 HAV2         1.1910    -0.2080     2.0390 hc         1 C7J       0.054700
     52 HBH          1.0560     1.1580    -1.5800 h1         1 C7J       0.091700
     53 HAN         -1.9370    -2.0520     1.7040 ha         1 C7J       0.110000
     54 HAO         -0.1650     1.4970     3.4260 ha         1 C7J       0.110000
     55 HAL         -3.8610    -1.8430     3.2630 ha         1 C7J       0.115500
     56 HAK         -3.9440     0.0320     4.9040 ha         1 C7J       0.115000
     57 HAM         -2.0920     1.7000     4.9830 ha         1 C7J       0.115500
     58 HAG          2.3100    -0.9960    -1.5180 ho         1 C7J       0.447000
     59 HAX1         2.7590     1.8910    -0.0770 h1         1 C7J       0.058200
     60 HAX2         2.8160     0.3440     0.7340 h1         1 C7J       0.058200
     61 HAW1         4.7540     0.6530    -3.0480 h1         1 C7J       0.062700
     62 HAW2         3.0190     0.5120    -3.1110 h1         1 C7J       0.062700
     63 HBG          2.7210     2.7890    -2.2310 hc         1 C7J       0.045700
     64 HAB1         5.7790     2.9700    -2.1970 hc         1 C7J       0.038700
     65 HAB2         4.7010     4.3810    -2.1800 hc         1 C7J       0.038700
     66 HAB3         4.6540     3.2390    -0.8400 hc         1 C7J       0.038700
     67 HAA1         2.8190     2.3750    -4.6690 hc         1 C7J       0.038700
     68 HAA2         3.4470     3.9800    -4.2610 hc         1 C7J       0.038700
     69 HAA3         4.5730     2.6640    -4.6600 hc         1 C7J       0.038700
     70 HAR          4.3050    -2.7410    -0.6410 ha         1 C7J       0.134500
     71 HAS          5.1750     0.1110     2.5130 ha         1 C7J       0.134500
     72 HAP          3.5830    -4.3870     1.0690 ha         1 C7J       0.119500
     73 HAC1         3.4350    -4.9530     3.3950 hn         1 C7J       0.475500
     74 HAC2         3.7820    -3.8140     4.6570 hn         1 C7J       0.475500
     75 HAQ          4.4460    -1.5520     4.1970 ha         1 C7J       0.119500
@<TRIPOS>BOND
     1     1     2 1   
     2     1     6 1   
     3     1     9 1   
     4     1    40 1   
     5     2     3 1   
     6     2     4 1   
     7     2    41 1   
     8     4     5 1   
     9     4    44 1   
    10     4    45 1   
    11     5     6 1   
    12     6     7 1   
    13     6    42 1   
    14     7     8 1   
    15     8     9 1   
    16     8    46 1   
    17     8    47 1   
    18     9    10 1   
    19     9    43 1   
    20    10    11 1   
    21    11    12 2   
    22    11    13 1   
    23    13    14 1   
    24    13    48 1   
    25    14    15 1   
    26    14    22 1   
    27    14    49 1   
    28    15    16 1   
    29    15    50 1   
    30    15    51 1   
    31    16    17 ar  
    32    16    21 ar  
    33    17    18 ar  
    34    17    53 1   
    35    18    19 ar  
    36    18    55 1   
    37    19    20 ar  
    38    19    56 1   
    39    20    21 ar  
    40    20    57 1   
    41    21    54 1   
    42    22    23 1   
    43    22    24 1   
    44    22    52 1   
    45    23    58 1   
    46    24    25 1   
    47    24    59 1   
    48    24    60 1   
    49    25    26 1   
    50    25    30 1   
    51    26    27 1   
    52    26    61 1   
    53    26    62 1   
    54    27    28 1   
    55    27    29 1   
    56    27    63 1   
    57    28    64 1   
    58    28    65 1   
    59    28    66 1   
    60    29    67 1   
    61    29    68 1   
    62    29    69 1   
    63    30    31 2   
    64    30    32 2   
    65    30    33 1   
    66    33    34 ar  
    67    33    39 ar  
    68    34    35 ar  
    69    34    70 1   
    70    35    36 ar  
    71    35    72 1   
    72    36    37 1   
    73    36    38 ar  
    74    37    73 1   
    75    37    74 1   
    76    38    39 ar  
    77    38    75 1   
    78    39    71 1   
@<TRIPOS>SUBSTRUCTURE
     1 C7J         1 TEMP              0 ****  ****    0 ROOT
