@<TRIPOS>MOLECULE
C7J
   75    78     1     0     0
SMALL
abcg2


@<TRIPOS>ATOM
      1 CBN         -5.4970     0.1160    -0.7790 c5         1 C7J      -0.147700
      2 CBI         -5.0200    -1.2560    -0.3190 c5         1 C7J       0.123300
      3 CL          -6.3650    -2.1030     0.5410 cl         1 C7J      -0.282000
      4 CAT         -4.7210    -1.9610    -1.6300 c5         1 C7J       0.147600
      5 OAZ         -5.6980    -1.4690    -2.5310 os         1 C7J      -0.425000
      6 CBM         -5.9610    -0.1390    -2.2340 c5         1 C7J       0.375300
      7 OBA         -5.1950     0.7180    -3.0450 os         1 C7J      -0.457000
      8 CAU         -4.7670     1.8090    -2.2540 c5         1 C7J       0.136600
      9 CBK         -4.4200     1.2020    -0.9050 c5         1 C7J       0.162300
     10 OBB         -3.1360     0.5920    -0.9310 os         1 C7J      -0.462100
     11 CBC         -2.0870     1.3230    -0.5180 c          1 C7J       0.641100
     12 OAD         -2.1590     2.4920    -0.2120 o          1 C7J      -0.532000
     13 NAY         -0.9650     0.5750    -0.5250 ns         1 C7J      -0.477900
     14 CBJ          0.2260     0.9730     0.1930 c3         1 C7J       0.088700
     15 CAV          0.2620     0.2950     1.5770 c3         1 C7J      -0.061100
     16 CBE         -1.0030     0.5490     2.3470 ca         1 C7J      -0.089300
     17 CAN         -2.0540    -0.3640     2.3130 ca         1 C7J      -0.102500
     18 CAL         -3.2540    -0.0930     2.9580 ca         1 C7J      -0.108000
     19 CAK         -3.4170     1.0960     3.6550 ca         1 C7J      -0.106000
     20 CAM         -2.3700     2.0080     3.7060 ca         1 C7J      -0.108000
     21 CAO         -1.1760     1.7360     3.0540 ca         1 C7J      -0.102500
     22 CBH          1.4610     0.6710    -0.6680 c3         1 C7J       0.146300
     23 OAG          1.6170    -0.7060    -0.9070 oh         1 C7J      -0.653000
     24 CAX          2.7070     1.3320    -0.0710 c3         1 C7J       0.193800
     25 NBL          3.9320     0.9560    -0.7490 n3         1 C7J      -0.789500
     26 CAW          4.1090     1.3220    -2.1460 c3         1 C7J       0.234800
     27 CBG          4.3300     2.8160    -2.3760 c3         1 C7J      -0.080700
     28 CAB          5.5850     3.3230    -1.6800 c3         1 C7J      -0.091600
     29 CAA          4.3870     3.0800    -3.8770 c3         1 C7J      -0.091600
     30 SBO          5.1220     0.2580     0.1420 sy         1 C7J       1.204600
     31 OAE          6.2550     0.0440    -0.7480 o          1 C7J      -0.546000
     32 OAF          5.3300     1.0270     1.3640 o          1 C7J      -0.546000
     33 CBF          4.4680    -1.3010     0.6170 ca         1 C7J      -0.370500
     34 CAR          4.4110    -2.3280    -0.3260 ca         1 C7J       0.036500
     35 CAP          3.8500    -3.5400     0.0040 ca         1 C7J      -0.222000
     36 CBD          3.3180    -3.7650     1.2880 ca         1 C7J       0.371000
     37 NAC          2.7250    -4.9450     1.5970 nv         1 C7J      -1.091000
     38 CAQ          3.3820    -2.7200     2.2250 ca         1 C7J      -0.222000
     39 CAS          3.9570    -1.5080     1.8950 ca         1 C7J       0.036500
     40 HBN         -6.3020     0.5010    -0.1550 hc         1 C7J       0.096700
     41 HBI         -4.1800    -1.2390     0.3690 h1         1 C7J       0.098700
     42 HBM         -7.0290     0.0390    -2.3970 h2         1 C7J       0.091700
     43 HBK         -4.4830     1.9240    -0.0930 h1         1 C7J       0.090700
     44 HAT1        -3.7070    -1.7100    -1.9570 h1         1 C7J       0.071700
     45 HAT2        -4.8030    -3.0450    -1.5740 h1         1 C7J       0.071700
     46 HAU1        -3.9250     2.2980    -2.7430 h1         1 C7J       0.066700
     47 HAU2        -5.5650     2.5500    -2.1230 h1         1 C7J       0.066700
     48 HAY         -1.0640    -0.4080    -0.7330 hn         1 C7J       0.327500
     49 HBJ          0.1740     2.0540     0.3310 h1         1 C7J       0.090700
     50 HAV1         0.4050    -0.7820     1.4550 hc         1 C7J       0.054700
     51 HAV2         1.1180     0.6680     2.1440 hc         1 C7J       0.054700
     52 HBH          1.2660     1.1160    -1.6480 h1         1 C7J       0.091700
     53 HAN         -1.9340    -1.3010     1.7800 ha         1 C7J       0.110000
     54 HAO         -0.3690     2.4580     3.0910 ha         1 C7J       0.110000
     55 HAL         -4.0610    -0.8140     2.9200 ha         1 C7J       0.115500
     56 HAK         -4.3500     1.3090     4.1610 ha         1 C7J       0.115000
     57 HAM         -2.4840     2.9350     4.2550 ha         1 C7J       0.115500
     58 HAG          2.0130    -1.1330    -0.1410 ho         1 C7J       0.447000
     59 HAX1         2.5740     2.4170    -0.1040 h1         1 C7J       0.058200
     60 HAX2         2.7980     1.0890     0.9890 h1         1 C7J       0.058200
     61 HAW1         4.9500     0.7610    -2.5530 h1         1 C7J       0.062700
     62 HAW2         3.2270     0.9890    -2.6990 h1         1 C7J       0.062700
     63 HBG          3.4680     3.3610    -1.9730 hc         1 C7J       0.045700
     64 HAB1         6.4730     2.8090    -2.0540 hc         1 C7J       0.038700
     65 HAB2         5.7190     4.3910    -1.8560 hc         1 C7J       0.038700
     66 HAB3         5.5440     3.1750    -0.6000 hc         1 C7J       0.038700
     67 HAA1         3.4730     2.7550    -4.3780 hc         1 C7J       0.038700
     68 HAA2         4.5170     4.1430    -4.0830 hc         1 C7J       0.038700
     69 HAA3         5.2250     2.5490    -4.3350 hc         1 C7J       0.038700
     70 HAR          4.8030    -2.1850    -1.3250 ha         1 C7J       0.134500
     71 HAS          3.9980    -0.7270     2.6420 ha         1 C7J       0.134500
     72 HAP          3.8150    -4.3310    -0.7350 ha         1 C7J       0.119500
     73 HAC1         2.9150    -5.7430     1.0130 hn         1 C7J       0.475500
     74 HAC2         2.5730    -5.1670     2.5660 hn         1 C7J       0.475500
     75 HAQ          2.9860    -2.8660     3.2220 ha         1 C7J       0.119500
@<TRIPOS>BOND
     1     1     2 1   
     2     1     6 1   
     3     1     9 1   
     4     1    40 1   
     5     2     3 1   
     6     2     4 1   
     7     2    41 1   
     8     4     5 1   
     9     4    44 1   
    10     4    45 1   
    11     5     6 1   
    12     6     7 1   
    13     6    42 1   
    14     7     8 1   
    15     8     9 1   
    16     8    46 1   
    17     8    47 1   
    18     9    10 1   
    19     9    43 1   
    20    10    11 1   
    21    11    12 2   
    22    11    13 1   
    23    13    14 1   
    24    13    48 1   
    25    14    15 1   
    26    14    22 1   
    27    14    49 1   
    28    15    16 1   
    29    15    50 1   
    30    15    51 1   
    31    16    17 ar  
    32    16    21 ar  
    33    17    18 ar  
    34    17    53 1   
    35    18    19 ar  
    36    18    55 1   
    37    19    20 ar  
    38    19    56 1   
    39    20    21 ar  
    40    20    57 1   
    41    21    54 1   
    42    22    23 1   
    43    22    24 1   
    44    22    52 1   
    45    23    58 1   
    46    24    25 1   
    47    24    59 1   
    48    24    60 1   
    49    25    26 1   
    50    25    30 1   
    51    26    27 1   
    52    26    61 1   
    53    26    62 1   
    54    27    28 1   
    55    27    29 1   
    56    27    63 1   
    57    28    64 1   
    58    28    65 1   
    59    28    66 1   
    60    29    67 1   
    61    29    68 1   
    62    29    69 1   
    63    30    31 2   
    64    30    32 2   
    65    30    33 1   
    66    33    34 ar  
    67    33    39 ar  
    68    34    35 ar  
    69    34    70 1   
    70    35    36 ar  
    71    35    72 1   
    72    36    37 1   
    73    36    38 ar  
    74    37    73 1   
    75    37    74 1   
    76    38    39 ar  
    77    38    75 1   
    78    39    71 1   
@<TRIPOS>SUBSTRUCTURE
     1 C7J         1 TEMP              0 ****  ****    0 ROOT
