@<TRIPOS>MOLECULE
C7K
   52    53     1     0     0
SMALL
No Charge or Current Charge


@<TRIPOS>ATOM
      1 C1          -5.6820    -1.0440    -0.1110 ca         1 C7K      -0.163000
      2 C2          -7.0180    -0.7040    -0.1130 ca         1 C7K      -0.025000
      3 C3          -4.6780    -0.0690    -0.0010 ca         1 C7K       0.446000
      4 N6          -7.8230    -1.8220    -0.2160 nc         1 C7K       0.040000
      5 C7          -5.0570     1.2760     0.1140 ca         1 C7K      -0.300000
      6 C10         -6.4180     1.6380     0.1160 ca         1 C7K       0.096000
      7 C12         -2.1590     0.4400     0.0340 c3         1 C7K       0.212800
      8 C15         -0.8630    -0.3930    -0.0030 c3         1 C7K      -0.096400
      9 C16          0.4120     0.4790     0.0350 c3         1 C7K      -0.072400
     10 C19          4.2900    -0.3110    -0.0020 c3         1 C7K      -0.074400
     11 C20          5.5640     0.5600     0.0350 c3         1 C7K      -0.075400
     12 C21          6.8660    -0.2700    -0.0030 c3         1 C7K      -0.075400
     13 C22          8.1410     0.6010     0.0350 c3         1 C7K      -0.079400
     14 C24         10.7230     0.6420     0.0340 c3         1 C7K      -0.203400
     15 N4          -5.4940    -2.4060    -0.2210 nc         1 C7K       0.019000
     16 C5          -7.4220     0.6490    -0.0030 ca         1 C7K      -0.279200
     17 N8          -3.3350    -0.4410    -0.0030 nu         1 C7K      -0.910200
     18 O9          -6.8490    -2.8770    -0.2870 os         1 C7K      -0.007000
     19 N11         -8.8610     1.0650     0.0010 no         1 C7K       0.720200
     20 O13         -9.1400     2.1730     0.4760 o          1 C7K      -0.412500
     21 O14         -9.6940     0.3240    -0.5370 o          1 C7K      -0.412500
     22 C17          1.7140    -0.3520    -0.0020 c3         1 C7K      -0.075400
     23 C18          2.9880     0.5200     0.0350 c3         1 C7K      -0.074400
     24 C23          9.4430    -0.2290    -0.0030 c3         1 C7K      -0.053400
     25 C25         11.9760    -0.2520    -0.0070 c          1 C7K       0.717000
     26 O26         12.4330    -0.6540     1.0530 o          1 C7K      -0.742500
     27 O27         12.4310    -0.5590    -1.0980 o          1 C7K      -0.742500
     28 H1          -4.3060     2.0540     0.2030 ha         1 C7K       0.136000
     29 H2          -6.6820     2.6920     0.2020 ha         1 C7K       0.148000
     30 H3          -2.1710     1.0480     0.9500 h1         1 C7K       0.058700
     31 H4          -2.1730     1.1240    -0.8260 h1         1 C7K       0.058700
     32 H5          -0.8520    -1.0810     0.8510 hc         1 C7K       0.052200
     33 H6          -0.8520    -1.0040    -0.9140 hc         1 C7K       0.052200
     34 H7           0.4020     1.1700    -0.8180 hc         1 C7K       0.042700
     35 H8           0.4030     1.0930     0.9440 hc         1 C7K       0.042700
     36 H9           4.3000    -0.9240    -0.9120 hc         1 C7K       0.036700
     37 H10          4.3010    -1.0020     0.8500 hc         1 C7K       0.036700
     38 H11          5.5530     1.2510    -0.8170 hc         1 C7K       0.032700
     39 H12          6.8770    -0.9610     0.8500 hc         1 C7K       0.034700
     40 H13          8.1290     1.2920    -0.8180 hc         1 C7K       0.023700
     41 H14          8.1300     1.2140     0.9450 hc         1 C7K       0.023700
     42 H15         10.6770     1.2800    -0.8570 hc         1 C7K       0.014200
     43 H16         10.6790     1.1990     0.9780 hc         1 C7K       0.014200
     44 H17         -3.1680    -1.4440    -0.0890 hn         1 C7K       0.518000
     45 H18          1.7250    -1.0420     0.8500 hc         1 C7K       0.039700
     46 H19          1.7240    -0.9650    -0.9120 hc         1 C7K       0.039700
     47 H20          2.9790     1.1330     0.9450 hc         1 C7K       0.036700
     48 H21          2.9780     1.2100    -0.8180 hc         1 C7K       0.036700
     49 H22          9.4530    -0.9210     0.8480 hc         1 C7K       0.038200
     50 H23          9.4520    -0.8430    -0.9130 hc         1 C7K       0.038200
     51 H25          5.5550     1.1740     0.9450 hc         1 C7K       0.032700
     52 H26          6.8760    -0.8830    -0.9120 hc         1 C7K       0.034700
@<TRIPOS>BOND
     1     1     2 ar  
     2     1     3 ar  
     3     1    15 2   
     4     2     4 2   
     5     2    16 ar  
     6     3     5 ar  
     7     3    17 1   
     8     4    18 1   
     9     5     6 ar  
    10     5    28 1   
    11     6    16 ar  
    12     6    29 1   
    13     7     8 1   
    14     7    17 1   
    15     7    30 1   
    16     7    31 1   
    17     8     9 1   
    18     8    32 1   
    19     8    33 1   
    20     9    22 1   
    21     9    34 1   
    22     9    35 1   
    23    10    11 1   
    24    10    23 1   
    25    10    36 1   
    26    10    37 1   
    27    11    12 1   
    28    11    38 1   
    29    11    51 1   
    30    12    13 1   
    31    12    39 1   
    32    12    52 1   
    33    13    24 1   
    34    13    40 1   
    35    13    41 1   
    36    14    24 1   
    37    14    25 1   
    38    14    42 1   
    39    14    43 1   
    40    15    18 1   
    41    16    19 1   
    42    17    44 1   
    43    19    20 1   
    44    19    21 1   
    45    22    23 1   
    46    22    45 1   
    47    22    46 1   
    48    23    47 1   
    49    23    48 1   
    50    24    49 1   
    51    24    50 1   
    52    25    26 1   
    53    25    27 1   
@<TRIPOS>SUBSTRUCTURE
     1 C7K         1 TEMP              0 ****  ****    0 ROOT
