@<TRIPOS>MOLECULE
C7K
   52    53     1     0     0
SMALL
bcc


@<TRIPOS>ATOM
      1 C1          -5.6220    -1.0180    -0.0460 ca         1 C7K      -0.163000
      2 C2          -6.9910    -0.6280    -0.0650 ca         1 C7K      -0.025000
      3 C3          -4.5280    -0.0800    -0.0040 ca         1 C7K       0.307600
      4 N6          -7.7080    -1.7210    -0.1000 nc         1 C7K      -0.058500
      5 C7          -4.9080     1.2620     0.0180 ca         1 C7K      -0.318000
      6 C10         -6.2500     1.6440    -0.0020 ca         1 C7K       0.078000
      7 C12         -2.1120     0.3340     0.0490 c3         1 C7K       0.212800
      8 C15         -0.8400    -0.4940     0.0200 c3         1 C7K      -0.096400
      9 C16          0.4040     0.3840     0.0510 c3         1 C7K      -0.072400
     10 C19          4.2380    -0.3580     0.0280 c3         1 C7K      -0.074400
     11 C20          5.4870     0.5140     0.0380 c3         1 C7K      -0.075400
     12 C21          6.7820    -0.2880     0.0190 c3         1 C7K      -0.075400
     13 C22          8.0330     0.5830     0.0120 c3         1 C7K      -0.079400
     14 C24         10.5670     0.6600    -0.0310 c3         1 C7K      -0.203400
     15 N4          -5.5620    -2.3160    -0.0700 nc         1 C7K      -0.079500
     16 C5          -7.3090     0.7580    -0.0430 ca         1 C7K      -0.279200
     17 N8          -3.2820    -0.5230     0.0090 nu         1 C7K      -0.716600
     18 O9          -6.8180    -2.7280    -0.1020 os         1 C7K       0.190000
     19 N11         -8.6480     1.2080    -0.0650 no         1 C7K       0.340200
     20 O13         -8.8710     2.4040    -0.0450 o          1 C7K      -0.222500
     21 O14         -9.5220     0.3640    -0.1020 o          1 C7K      -0.222500
     22 C17          1.6950    -0.4250     0.0260 c3         1 C7K      -0.075400
     23 C18          2.9440     0.4470     0.0500 c3         1 C7K      -0.074400
     24 C23          9.3280    -0.2210    -0.0020 c3         1 C7K      -0.053400
     25 C25         11.9200    -0.0730    -0.0500 c          1 C7K       0.927600
     26 O26         11.9150    -1.3120     0.0880 o          1 C7K      -0.847800
     27 O27         12.9310     0.6480    -0.1970 o          1 C7K      -0.847800
     28 H1          -4.1590     2.0390     0.0500 ha         1 C7K       0.154000
     29 H2          -6.4590     2.7050     0.0170 ha         1 C7K       0.166000
     30 H3          -2.1400     0.9480     0.9550 h1         1 C7K       0.058700
     31 H4          -2.1340     1.0170    -0.8050 h1         1 C7K       0.058700
     32 H5          -0.8300    -1.1760     0.8760 hc         1 C7K       0.052200
     33 H6          -0.8300    -1.1150    -0.8810 hc         1 C7K       0.052200
     34 H7           0.3870     1.0680    -0.8040 hc         1 C7K       0.042700
     35 H8           0.3850     1.0120     0.9480 hc         1 C7K       0.042700
     36 H9           4.2510    -1.0000    -0.8600 hc         1 C7K       0.036700
     37 H10          4.2600    -1.0330     0.8900 hc         1 C7K       0.036700
     38 H11          5.4660     1.1870    -0.8270 hc         1 C7K       0.032700
     39 H12          6.8090    -0.9550     0.8890 hc         1 C7K       0.034700
     40 H13          8.0040     1.2470    -0.8600 hc         1 C7K       0.023700
     41 H14          8.0200     1.2410     0.8890 hc         1 C7K       0.023700
     42 H15         10.5240     1.3270    -0.9000 hc         1 C7K       0.014200
     43 H16         10.5580     1.3310     0.8370 hc         1 C7K       0.014200
     44 H17         -3.1310    -1.5210    -0.0030 hn         1 C7K       0.462800
     45 H18          1.7120    -1.1080     0.8820 hc         1 C7K       0.039700
     46 H19          1.7100    -1.0580    -0.8680 hc         1 C7K       0.039700
     47 H20          2.9260     1.0820     0.9420 hc         1 C7K       0.036700
     48 H21          2.9260     1.1290    -0.8080 hc         1 C7K       0.036700
     49 H22          9.3560    -0.8730     0.8760 hc         1 C7K       0.038200
     50 H23          9.3260    -0.8870    -0.8700 hc         1 C7K       0.038200
     51 H25          5.4730     1.1600     0.9230 hc         1 C7K       0.032700
     52 H26          6.7920    -0.9410    -0.8610 hc         1 C7K       0.034700
@<TRIPOS>BOND
     1     1     2 ar  
     2     1     3 ar  
     3     1    15 2   
     4     2     4 2   
     5     2    16 ar  
     6     3     5 ar  
     7     3    17 1   
     8     4    18 1   
     9     5     6 ar  
    10     5    28 1   
    11     6    16 ar  
    12     6    29 1   
    13     7     8 1   
    14     7    17 1   
    15     7    30 1   
    16     7    31 1   
    17     8     9 1   
    18     8    32 1   
    19     8    33 1   
    20     9    22 1   
    21     9    34 1   
    22     9    35 1   
    23    10    11 1   
    24    10    23 1   
    25    10    36 1   
    26    10    37 1   
    27    11    12 1   
    28    11    38 1   
    29    11    51 1   
    30    12    13 1   
    31    12    39 1   
    32    12    52 1   
    33    13    24 1   
    34    13    40 1   
    35    13    41 1   
    36    14    24 1   
    37    14    25 1   
    38    14    42 1   
    39    14    43 1   
    40    15    18 1   
    41    16    19 1   
    42    17    44 1   
    43    19    20 1   
    44    19    21 1   
    45    22    23 1   
    46    22    45 1   
    47    22    46 1   
    48    23    47 1   
    49    23    48 1   
    50    24    49 1   
    51    24    50 1   
    52    25    26 1   
    53    25    27 1   
@<TRIPOS>SUBSTRUCTURE
     1 C7K         1 TEMP              0 ****  ****    0 ROOT
