@<TRIPOS>MOLECULE
C7L
   86    89     1     0     0
SMALL
No Charge or Current Charge


@<TRIPOS>ATOM
      1 CAB          5.2670     4.2160     2.7430 c3         1 C7L       0.142900
      2 CAC         -5.1700    -4.4100    -3.3620 c3         1 C7L      -0.087600
      3 CAD         -6.2660    -3.7910    -1.1480 c3         1 C7L      -0.087600
      4 OAE          2.0030    -2.2320     0.8810 o          1 C7L      -0.536000
      5 OAF         -6.4500    -0.3450    -1.6270 o          1 C7L      -0.549000
      6 OAG         -4.2350     0.3860    -2.7140 o          1 C7L      -0.549000
      7 OAH         -1.7030     0.0730    -1.7700 oh         1 C7L      -0.672000
      8 CAK          2.2650     0.4760     4.3180 ca         1 C7L      -0.110000
      9 CAL          2.7060     0.8450     3.0360 ca         1 C7L      -0.105000
     10 CAM          0.9220     0.1100     4.5170 ca         1 C7L      -0.105000
     11 CAN          1.8040     0.8520     1.9580 ca         1 C7L      -0.104000
     12 CAO          0.0230     0.1120     3.4360 ca         1 C7L      -0.104000
     13 CAP         -3.8760     2.1900    -0.3280 ca         1 C7L       0.036500
     14 CAQ         -3.7070     3.0850     0.7420 ca         1 C7L      -0.216500
     15 CAR         -5.5580     0.9850     0.9640 ca         1 C7L       0.036500
     16 CAS          4.2310     3.4090     0.7100 c3         1 C7L       0.155600
     17 CAT          4.5000     2.5040    -0.5170 c3         1 C7L       0.159600
     18 CAU          6.4770     0.4510    -1.5270 c5         1 C7L       0.119600
     19 CAV          4.7400    -2.7730    -2.1840 c5         1 C7L       0.132600
     20 CAW         -0.5110     0.4800     0.9740 c3         1 C7L      -0.055100
     21 CAX         -4.1250    -2.5820    -1.9190 c3         1 C7L       0.228800
     22 CAY         -3.0340    -1.2610    -0.1070 c3         1 C7L       0.196800
     23 NBB          0.7980    -0.9520    -0.5960 ns         1 C7L      -0.481900
     24 OBC          5.4090     3.4400     1.5420 os         1 C7L      -0.445000
     25 OBD          4.6360     1.1290    -0.0870 os         1 C7L      -0.438000
     26 OBE          6.9630    -0.8320    -1.9440 os         1 C7L      -0.461000
     27 OBF          6.1040    -2.9680    -1.7640 os         1 C7L      -0.437000
     28 OBG          2.8320    -1.6060    -1.1880 os         1 C7L      -0.454100
     29 CBI          1.9000    -1.6470    -0.1870 c          1 C7L       0.648100
     30 CBJ          0.4610     0.4830     2.1490 ca         1 C7L      -0.087300
     31 CBK         -4.8020     1.1340    -0.2140 ca         1 C7L      -0.361500
     32 CBM         -4.4570     2.9320     1.9130 ca         1 C7L       0.371000
     33 CBN         -5.3800     1.8880     2.0250 ca         1 C7L      -0.216500
     34 CBO         -5.4480    -3.2700    -2.3560 c3         1 C7L      -0.087700
     35 CBP         -1.6630    -1.0280    -0.8370 c3         1 C7L       0.153300
     36 CBQ         -0.4660    -0.8390     0.1460 c3         1 C7L       0.104700
     37 CBR          5.0140     0.1590    -1.0970 c5         1 C7L       0.146300
     38 CBS          4.0900    -2.2670    -0.8770 c5         1 C7L       0.160300
     39 CBU          6.4870    -1.8080    -1.0010 c5         1 C7L       0.375300
     40 CBV          5.1650    -1.2320    -0.3820 c5         1 C7L      -0.141700
     41 SBW         -5.0180    -0.0460    -1.5530 sy         1 C7L       1.198600
     42 HAB          5.0350     5.2630     2.5060 h1         1 C7L       0.030367
     43 HABA         4.4630     3.8150     3.3730 h1         1 C7L       0.030367
     44 HABB         6.1980     4.1960     3.3230 h1         1 C7L       0.030367
     45 HAC         -6.1080    -4.8600    -3.7090 hc         1 C7L       0.036533
     46 HACA        -4.6340    -4.0300    -4.2410 hc         1 C7L       0.036533
     47 HACB        -4.5610    -5.1990    -2.9030 hc         1 C7L       0.036533
     48 HAD         -5.6930    -4.5360    -0.5820 hc         1 C7L       0.036533
     49 HADA        -6.5270    -2.9730    -0.4670 hc         1 C7L       0.036533
     50 HADB        -7.1990    -4.2580    -1.4850 hc         1 C7L       0.036533
     51 HOAH        -2.5880     0.0550    -2.2130 ho         1 C7L       0.478000
     52 HAK          2.9610     0.4700     5.1530 ha         1 C7L       0.111000
     53 HAL          3.7460     1.1200     2.8760 ha         1 C7L       0.120500
     54 HAM          0.5790    -0.1780     5.5080 ha         1 C7L       0.120500
     55 HAN          2.1510     1.1280     0.9670 ha         1 C7L       0.107000
     56 HAO         -1.0120    -0.1770     3.5990 ha         1 C7L       0.107000
     57 HAQ         -2.9910     3.8970     0.6530 ha         1 C7L       0.117500
     58 HAR         -6.2720     0.1690     1.0640 ha         1 C7L       0.130000
     59 HAS          3.9910     4.4200     0.3550 h1         1 C7L       0.031200
     60 HASA         3.3650     3.0350     1.2670 h1         1 C7L       0.031200
     61 HAT          3.6640     2.5990    -1.2210 h1         1 C7L       0.033700
     62 HATA         5.4080     2.8580    -1.0210 h1         1 C7L       0.033700
     63 HAU          7.0870     0.8120    -0.6880 h1         1 C7L       0.057700
     64 HAUA         6.5440     1.1650    -2.3580 h1         1 C7L       0.057700
     65 HAV          4.7000    -2.0300    -2.9930 h1         1 C7L       0.065200
     66 HAVA         4.3120    -3.7200    -2.5360 h1         1 C7L       0.065200
     67 HAW         -1.5230     0.6510     1.3560 hc         1 C7L       0.053700
     68 HAWA        -0.3030     1.3290     0.3110 hc         1 C7L       0.053700
     69 HAX         -3.5030    -3.3690    -1.4690 h1         1 C7L       0.065200
     70 HAXA        -3.5900    -2.2500    -2.8200 h1         1 C7L       0.065200
     71 HAY         -2.9040    -2.1750     0.4900 h1         1 C7L       0.057200
     72 HAYA        -3.1940    -0.4770     0.6390 h1         1 C7L       0.057200
     73 HNAZ        -3.4930     4.4400     2.9360 hn         1 C7L       0.472000
     74 HNAA        -4.6910     3.5860     3.8560 hn         1 C7L       0.472000
     75 HNBB         0.8580    -0.5250    -1.5100 hn         1 C7L       0.335500
     76 HBN         -5.9630     1.7680     2.9340 ha         1 C7L       0.117500
     77 HBO         -6.0640    -2.5380    -2.8880 hc         1 C7L       0.049700
     78 HBP         -1.4590    -1.9520    -1.3950 h1         1 C7L       0.074700
     79 HBQ         -0.5120    -1.6730     0.8600 h1         1 C7L       0.083700
     80 HBR          4.3190     0.1750    -1.9480 h1         1 C7L       0.057700
     81 HBS          3.9580    -3.1130    -0.1870 h1         1 C7L       0.093700
     82 HBU          7.2510    -2.0440    -0.2470 h2         1 C7L       0.090700
     83 HBV          5.2170    -1.1570     0.7090 hc         1 C7L       0.098700
     84 NBT         -4.2470    -1.4530    -0.9590 n3         1 C7L      -0.787500
     85 HAP         -3.2840     2.3240    -1.2320 ha         1 C7L       0.130000
     86 NAZ         -4.2880     3.8050     2.9480 nv         1 C7L      -1.087000
@<TRIPOS>BOND
     1     1    24 1   
     2     1    42 1   
     3     1    43 1   
     4     1    44 1   
     5     2    34 1   
     6     2    45 1   
     7     2    46 1   
     8     2    47 1   
     9     3    34 1   
    10     3    48 1   
    11     3    49 1   
    12     3    50 1   
    13     4    29 2   
    14     5    41 2   
    15     6    41 2   
    16     7    35 1   
    17     7    51 1   
    18     8     9 ar  
    19     8    10 ar  
    20     8    52 1   
    21     9    11 ar  
    22     9    53 1   
    23    10    12 ar  
    24    10    54 1   
    25    11    30 ar  
    26    11    55 1   
    27    12    30 ar  
    28    12    56 1   
    29    13    14 ar  
    30    13    31 ar  
    31    13    85 1   
    32    14    32 ar  
    33    14    57 1   
    34    15    31 ar  
    35    15    33 ar  
    36    15    58 1   
    37    16    17 1   
    38    16    24 1   
    39    16    59 1   
    40    16    60 1   
    41    17    25 1   
    42    17    61 1   
    43    17    62 1   
    44    18    26 1   
    45    18    37 1   
    46    18    63 1   
    47    18    64 1   
    48    19    27 1   
    49    19    38 1   
    50    19    65 1   
    51    19    66 1   
    52    20    30 1   
    53    20    36 1   
    54    20    67 1   
    55    20    68 1   
    56    21    34 1   
    57    21    69 1   
    58    21    70 1   
    59    21    84 1   
    60    22    35 1   
    61    22    71 1   
    62    22    72 1   
    63    22    84 1   
    64    23    29 1   
    65    23    36 1   
    66    23    75 1   
    67    25    37 1   
    68    26    39 1   
    69    27    39 1   
    70    28    29 1   
    71    28    38 1   
    72    31    41 1   
    73    32    33 ar  
    74    32    86 1   
    75    33    76 1   
    76    34    77 1   
    77    35    36 1   
    78    35    78 1   
    79    36    79 1   
    80    37    40 1   
    81    37    80 1   
    82    38    40 1   
    83    38    81 1   
    84    39    40 1   
    85    39    82 1   
    86    40    83 1   
    87    41    84 1   
    88    73    86 1   
    89    74    86 1   
@<TRIPOS>SUBSTRUCTURE
     1 C7L         1 TEMP              0 ****  ****    0 ROOT
