@<TRIPOS>MOLECULE
C7L
   86    89     1     0     0
SMALL
abcg2


@<TRIPOS>ATOM
      1 CAB          5.2160     4.3170     1.9390 c3         1 C7L       0.142900
      2 CAC         -5.7930    -3.5700    -1.9590 c3         1 C7L      -0.087600
      3 CAD         -5.3490    -2.4230     0.2340 c3         1 C7L      -0.087600
      4 OAE          1.9430    -2.5880     0.6710 o          1 C7L      -0.536000
      5 OAF         -5.0450     0.8120    -2.9410 o          1 C7L      -0.549000
      6 OAG         -3.3760     2.0040    -1.4740 o          1 C7L      -0.549000
      7 OAH         -0.9530     0.4590    -1.8970 oh         1 C7L      -0.672000
      8 CAK          3.1890     0.2030     3.8210 ca         1 C7L      -0.110000
      9 CAL          3.4300     0.7490     2.5680 ca         1 C7L      -0.105000
     10 CAM          1.9030    -0.2050     4.1550 ca         1 C7L      -0.105000
     11 CAN          2.3890     0.8880     1.6590 ca         1 C7L      -0.104000
     12 CAO          0.8690    -0.0680     3.2390 ca         1 C7L      -0.104000
     13 CAP         -5.2790     1.7700     0.8050 ca         1 C7L       0.036500
     14 CAQ         -6.2430     1.9560     1.7730 ca         1 C7L      -0.216500
     15 CAR         -6.9600     0.9580    -0.7150 ca         1 C7L       0.036500
     16 CAS          4.9530     3.2040    -0.0960 c3         1 C7L       0.155600
     17 CAT          5.5170     2.1020    -0.9560 c3         1 C7L       0.159600
     18 CAU          7.2780    -0.2950    -1.4000 c5         1 C7L       0.119600
     19 CAV          4.8410    -3.1740    -1.7380 c5         1 C7L       0.132600
     20 CAW         -0.0170     0.5760     0.9770 c3         1 C7L      -0.055100
     21 CAX         -4.1480    -1.7160    -1.8850 c3         1 C7L       0.228800
     22 CAY         -2.5780    -0.5050    -0.3350 c3         1 C7L       0.196800
     23 NBB          1.1740    -0.8700    -0.6080 ns         1 C7L      -0.481900
     24 OBC          5.7350     3.3530     1.0600 os         1 C7L      -0.445000
     25 OBD          5.4330     0.8790    -0.2640 os         1 C7L      -0.438000
     26 OBE          7.5370    -1.6680    -1.6040 os         1 C7L      -0.461000
     27 OBF          6.1730    -3.5070    -1.3930 os         1 C7L      -0.437000
     28 OBG          3.2500    -1.5580    -0.8600 os         1 C7L      -0.454100
     29 CBI          2.1050    -1.7400    -0.1780 c          1 C7L       0.648100
     30 CBJ          1.0970     0.4800     1.9800 ca         1 C7L      -0.087300
     31 CBK         -5.6290     1.2580    -0.4430 ca         1 C7L      -0.361500
     32 CBM         -7.5900     1.6450     1.5190 ca         1 C7L       0.371000
     33 CBN         -7.9260     1.1470     0.2490 ca         1 C7L      -0.216500
     34 CBO         -5.4430    -2.2520    -1.2760 c3         1 C7L      -0.087700
     35 CBP         -1.1980    -0.5850    -0.9860 c3         1 C7L       0.153300
     36 CBQ         -0.0860    -0.6650     0.0690 c3         1 C7L       0.104700
     37 CBR          5.7910    -0.2310    -1.0350 c5         1 C7L       0.146300
     38 CBS          4.3740    -2.3500    -0.5440 c5         1 C7L       0.160300
     39 CBU          6.7530    -2.4290    -0.7190 c5         1 C7L       0.375300
     40 CBV          5.6160    -1.5170    -0.2270 c5         1 C7L      -0.141700
     41 SBW         -4.3890     0.9610    -1.6510 sy         1 C7L       1.198600
     42 HAB          5.1460     5.3070     1.4710 h1         1 C7L       0.030367
     43 HABA         4.2170     4.0460     2.3020 h1         1 C7L       0.030367
     44 HABB         5.8850     4.3880     2.7960 h1         1 C7L       0.030367
     45 HAC         -6.7320    -3.9720    -1.5770 hc         1 C7L       0.036533
     46 HACA        -5.8990    -3.4480    -3.0380 hc         1 C7L       0.036533
     47 HACB        -5.0160    -4.3190    -1.7840 hc         1 C7L       0.036533
     48 HAD         -4.5710    -3.1430     0.5010 hc         1 C7L       0.036533
     49 HADA        -5.1250    -1.4830     0.7400 hc         1 C7L       0.036533
     50 HADB        -6.2920    -2.7890     0.6410 hc         1 C7L       0.036533
     51 HOAH        -1.5300     1.2090    -1.7020 ho         1 C7L       0.478000
     52 HAK          3.9960     0.0970     4.5340 ha         1 C7L       0.111000
     53 HAL          4.4240     1.0710     2.2860 ha         1 C7L       0.120500
     54 HAM          1.7040    -0.6300     5.1310 ha         1 C7L       0.120500
     55 HAN          2.5940     1.3170     0.6860 ha         1 C7L       0.107000
     56 HAO         -0.1300    -0.3900     3.5090 ha         1 C7L       0.107000
     57 HAQ         -5.9560     2.3560     2.7380 ha         1 C7L       0.117500
     58 HAR         -7.2540     0.5790    -1.6850 ha         1 C7L       0.130000
     59 HAS          4.9410     4.1300    -0.6900 h1         1 C7L       0.031200
     60 HASA         3.9090     2.9790     0.1610 h1         1 C7L       0.031200
     61 HAT          4.9400     2.0680    -1.8890 h1         1 C7L       0.033700
     62 HATA         6.5550     2.3400    -1.2260 h1         1 C7L       0.033700
     63 HAU          7.8800     0.1120    -0.5760 h1         1 C7L       0.057700
     64 HAUA         7.5370     0.2420    -2.3130 h1         1 C7L       0.057700
     65 HAV          4.7880    -2.5910    -2.6660 h1         1 C7L       0.065200
     66 HAVA         4.2750    -4.0950    -1.8800 h1         1 C7L       0.065200
     67 HAW         -0.9650     0.6880     1.5070 hc         1 C7L       0.053700
     68 HAWA         0.1090     1.4660     0.3550 hc         1 C7L       0.053700
     69 HAX         -3.3500    -2.4480    -1.7370 h1         1 C7L       0.065200
     70 HAXA        -4.2600    -1.6090    -2.9640 h1         1 C7L       0.065200
     71 HAY         -2.7170    -1.3730     0.3120 h1         1 C7L       0.057200
     72 HAYA        -2.6490     0.3620     0.3230 h1         1 C7L       0.057200
     73 HNAZ        -8.2550     1.9740     3.4160 hn         1 C7L       0.472000
     74 HNAA        -9.4350     1.4090     2.3480 hn         1 C7L       0.472000
     75 HNBB         1.4550    -0.1650    -1.2740 hn         1 C7L       0.335500
     76 HBN         -8.9590     0.9170     0.0200 ha         1 C7L       0.117500
     77 HBO         -6.2470    -1.5420    -1.4910 hc         1 C7L       0.049700
     78 HBP         -1.1530    -1.5220    -1.5560 h1         1 C7L       0.074700
     79 HBQ         -0.2720    -1.5440     0.6890 h1         1 C7L       0.083700
     80 HBR          5.1940    -0.2570    -1.9580 h1         1 C7L       0.057700
     81 HBS          4.1560    -3.0140     0.2940 h1         1 C7L       0.093700
     82 HBU          7.3800    -2.8390     0.0790 h2         1 C7L       0.090700
     83 HBV          5.7030    -1.2930     0.8370 hc         1 C7L       0.098700
     84 NBT         -3.6500    -0.4650    -1.3180 n3         1 C7L      -0.787500
     85 HAP         -4.2570     2.0420     1.0330 ha         1 C7L       0.130000
     86 NAZ         -8.5460     1.8680     2.4580 nv         1 C7L      -1.087000
@<TRIPOS>BOND
     1     1    24 1   
     2     1    42 1   
     3     1    43 1   
     4     1    44 1   
     5     2    34 1   
     6     2    45 1   
     7     2    46 1   
     8     2    47 1   
     9     3    34 1   
    10     3    48 1   
    11     3    49 1   
    12     3    50 1   
    13     4    29 2   
    14     5    41 2   
    15     6    41 2   
    16     7    35 1   
    17     7    51 1   
    18     8     9 ar  
    19     8    10 ar  
    20     8    52 1   
    21     9    11 ar  
    22     9    53 1   
    23    10    12 ar  
    24    10    54 1   
    25    11    30 ar  
    26    11    55 1   
    27    12    30 ar  
    28    12    56 1   
    29    13    14 ar  
    30    13    31 ar  
    31    13    85 1   
    32    14    32 ar  
    33    14    57 1   
    34    15    31 ar  
    35    15    33 ar  
    36    15    58 1   
    37    16    17 1   
    38    16    24 1   
    39    16    59 1   
    40    16    60 1   
    41    17    25 1   
    42    17    61 1   
    43    17    62 1   
    44    18    26 1   
    45    18    37 1   
    46    18    63 1   
    47    18    64 1   
    48    19    27 1   
    49    19    38 1   
    50    19    65 1   
    51    19    66 1   
    52    20    30 1   
    53    20    36 1   
    54    20    67 1   
    55    20    68 1   
    56    21    34 1   
    57    21    69 1   
    58    21    70 1   
    59    21    84 1   
    60    22    35 1   
    61    22    71 1   
    62    22    72 1   
    63    22    84 1   
    64    23    29 1   
    65    23    36 1   
    66    23    75 1   
    67    25    37 1   
    68    26    39 1   
    69    27    39 1   
    70    28    29 1   
    71    28    38 1   
    72    31    41 1   
    73    32    33 ar  
    74    32    86 1   
    75    33    76 1   
    76    34    77 1   
    77    35    36 1   
    78    35    78 1   
    79    36    79 1   
    80    37    40 1   
    81    37    80 1   
    82    38    40 1   
    83    38    81 1   
    84    39    40 1   
    85    39    82 1   
    86    40    83 1   
    87    41    84 1   
    88    73    86 1   
    89    74    86 1   
@<TRIPOS>SUBSTRUCTURE
     1 C7L         1 TEMP              0 ****  ****    0 ROOT
