@<TRIPOS>MOLECULE
C7M
   67    70     1     0     0
SMALL
No Charge or Current Charge


@<TRIPOS>ATOM
      1 C1           8.5870    -1.7000     4.0000 c3         1 C7M       0.142900
      2 O2           7.9120    -2.4790     2.9960 os         1 C7M      -0.326100
      3 C3           7.1800    -1.8960     1.9810 ca         1 C7M       0.209100
      4 C4           6.5600    -2.7450     1.0530 ca         1 C7M      -0.197000
      5 C5           5.8010    -2.2160    -0.0040 ca         1 C7M       0.020500
      6 C6           5.6610    -0.8210    -0.1340 ca         1 C7M      -0.374500
      7 C7           6.2800     0.0390     0.7960 ca         1 C7M       0.020500
      8 C8           7.0380    -0.4990     1.8500 ca         1 C7M      -0.197000
      9 S9           4.6880    -0.1480    -1.4800 sy         1 C7M       1.156600
     10 O10          4.7300    -1.0650    -2.6220 o          1 C7M      -0.517500
     11 O11          4.9340     1.2910    -1.5930 o          1 C7M      -0.517500
     12 N12          3.1770    -0.3270    -0.8020 n7         1 C7M      -0.868300
     13 C13          2.1030     0.5950    -1.2240 c3         1 C7M       0.174800
     14 C14          0.8200     0.3490    -0.3810 c3         1 C7M       0.143300
     15 O16          1.0660     0.6340     1.0170 oh         1 C7M      -0.656000
     16 C17         -0.4320     1.1430    -0.8710 c3         1 C7M       0.077300
     17 C19         -0.2870     2.6840    -0.7980 c3         1 C7M      -0.055100
     18 C20         -1.4710     3.4200    -1.4150 ca         1 C7M      -0.134300
     19 C21         -2.1840     4.3770    -0.6660 ca         1 C7M      -0.103500
     20 C22         -3.2500     5.0840    -1.2480 ca         1 C7M      -0.107000
     21 C23         -3.6090     4.8430    -2.5850 ca         1 C7M      -0.100000
     22 C24         -2.9000     3.8930    -3.3390 ca         1 C7M      -0.107000
     23 C25         -1.8350     3.1840    -2.7570 ca         1 C7M      -0.103500
     24 N26         -1.6570     0.7110    -0.0740 ny         1 C7M      -0.832000
     25 C29         -2.2490    -0.6560    -0.3600 c3         1 C7M       0.160900
     26 C30         -3.2810    -0.9540     0.7090 ca         1 C7M      -0.141300
     27 C31         -3.0070    -1.9420     1.6750 ca         1 C7M      -0.068000
     28 C32         -3.9450    -2.2310     2.6790 ca         1 C7M       0.118000
     29 Cl33        -3.5920    -3.4660     3.8810 cl         1 C7M      -0.137000
     30 C34         -5.1620    -1.5330     2.7270 ca         1 C7M      -0.048000
     31 C35         -5.4410    -0.5440     1.7680 ca         1 C7M      -0.122000
     32 C36         -4.5060    -0.2520     0.7540 ca         1 C7M       0.014800
     33 N37         -4.7810     0.7400    -0.1870 na         1 C7M      -0.266300
     34 C38         -5.9480     0.6860    -0.9050 cc         1 C7M       0.471400
     35 N39         -5.8300     1.6600    -1.6890 n2         1 C7M      -0.538800
     36 N40         -4.5780     2.0150    -1.2560 na         1 C7M      -0.057200
     37 N41         -4.4660     2.0850     0.1590 na         1 C7M      -0.219000
     38 H42          9.3340    -1.0380     3.5440 h1         1 C7M       0.051700
     39 H43          7.8730    -1.0890     4.5670 h1         1 C7M       0.051700
     40 H44          9.1060    -2.3590     4.7070 h1         1 C7M       0.051700
     41 H45          6.6680    -3.8210     1.1540 ha         1 C7M       0.135500
     42 H46          5.3240    -2.8920    -0.7130 ha         1 C7M       0.134500
     43 H47          6.1800     1.1200     0.7090 ha         1 C7M       0.134500
     44 H48          7.5050     0.1840     2.5530 ha         1 C7M       0.135500
     45 H49          3.3760    -0.2070     0.1900 hn         1 C7M       0.488000
     46 H50          2.4150     1.6420    -1.1060 h1         1 C7M       0.064700
     47 H51          1.8650     0.4410    -2.2870 h1         1 C7M       0.064700
     48 H15          0.5830    -0.7180    -0.4980 h1         1 C7M       0.114700
     49 H52          1.4190     1.5480     1.0820 ho         1 C7M       0.457000
     50 H18         -0.6030     0.8770    -1.9190 hx         1 C7M       0.117700
     51 H53         -0.1480     2.9900     0.2460 hc         1 C7M       0.078200
     52 H54          0.6210     2.9930    -1.3290 hc         1 C7M       0.078200
     53 H55         -1.9110     4.5810     0.3670 ha         1 C7M       0.118000
     54 H56         -3.7960     5.8230    -0.6640 ha         1 C7M       0.135000
     55 H57         -4.4320     5.3940    -3.0370 ha         1 C7M       0.136000
     56 H58         -3.1730     3.7090    -4.3770 ha         1 C7M       0.135000
     57 H59         -1.2850     2.4620    -3.3560 ha         1 C7M       0.118000
     58 H27         -1.4230     0.7590     0.9390 hn         1 C7M       0.518000
     59 H28         -2.4210     1.4130    -0.1690 hn         1 C7M       0.518000
     60 H60         -2.7070    -0.6520    -1.3550 hx         1 C7M       0.111700
     61 H61         -1.4550    -1.4080    -0.3490 hx         1 C7M       0.111700
     62 H62         -2.0660    -2.4870     1.6520 ha         1 C7M       0.146000
     63 H63         -5.8840    -1.7560     3.5090 ha         1 C7M       0.157000
     64 H64         -6.3810    -0.0000     1.8220 ha         1 C7M       0.139000
     65 H65         -6.7030    -0.0920    -0.8950 h5         1 C7M       0.082100
     66 H40         -4.0750     2.7290    -1.7810 hn         1 C7M       0.289000
     67 H41         -5.1990     2.6000     0.6330 hn         1 C7M       0.212000
@<TRIPOS>BOND
     1     1     2 1   
     2     1    38 1   
     3     1    39 1   
     4     1    40 1   
     5     2     3 1   
     6     3     4 ar  
     7     3     8 ar  
     8     4     5 ar  
     9     4    41 1   
    10     5     6 ar  
    11     5    42 1   
    12     6     7 ar  
    13     6     9 1   
    14     7     8 ar  
    15     7    43 1   
    16     8    44 1   
    17     9    10 2   
    18     9    11 2   
    19     9    12 1   
    20    12    13 1   
    21    12    45 1   
    22    13    14 1   
    23    13    46 1   
    24    13    47 1   
    25    14    15 1   
    26    14    16 1   
    27    14    48 1   
    28    15    49 1   
    29    16    17 1   
    30    16    24 1   
    31    16    50 1   
    32    17    18 1   
    33    17    51 1   
    34    17    52 1   
    35    18    19 ar  
    36    18    23 ar  
    37    19    20 ar  
    38    19    53 1   
    39    20    21 ar  
    40    20    54 1   
    41    21    22 ar  
    42    21    55 1   
    43    22    23 ar  
    44    22    56 1   
    45    23    57 1   
    46    24    25 1   
    47    24    58 1   
    48    24    59 1   
    49    25    26 1   
    50    25    60 1   
    51    25    61 1   
    52    26    27 ar  
    53    26    32 ar  
    54    27    28 ar  
    55    27    62 1   
    56    28    29 1   
    57    28    30 ar  
    58    30    31 ar  
    59    30    63 1   
    60    31    32 ar  
    61    31    64 1   
    62    32    33 1   
    63    33    34 1   
    64    33    37 1   
    65    34    35 2   
    66    34    65 1   
    67    35    36 1   
    68    36    37 1   
    69    36    66 1   
    70    37    67 1   
@<TRIPOS>SUBSTRUCTURE
     1 C7M         1 TEMP              0 ****  ****    0 ROOT
