@<TRIPOS>MOLECULE
C7M
   67    70     1     0     0
SMALL
bcc


@<TRIPOS>ATOM
      1 C1           7.9860     2.3060     1.8060 c3         1 C7M       0.119700
      2 O2           7.6740     0.9380     2.0110 os         1 C7M      -0.302900
      3 C3           6.8720     0.3220     1.1380 ca         1 C7M       0.209100
      4 C4           6.6050    -1.0300     1.3930 ca         1 C7M      -0.215000
      5 C5           5.7910    -1.7500     0.5470 ca         1 C7M       0.002500
      6 C6           5.2310    -1.1270    -0.5680 ca         1 C7M      -0.374500
      7 C7           5.4900     0.2090    -0.8290 ca         1 C7M       0.002500
      8 C8           6.3090     0.9370     0.0200 ca         1 C7M      -0.215000
      9 S9           4.1550    -2.0430    -1.6200 sy         1 C7M       1.298200
     10 O10          4.5740    -3.4340    -1.6150 o          1 C7M      -0.588300
     11 O11          4.0280    -1.3210    -2.8750 o          1 C7M      -0.588300
     12 N12          2.6600    -2.0260    -0.9160 n7         1 C7M      -0.813100
     13 C13          2.0150    -0.7400    -0.7020 c3         1 C7M       0.174800
     14 C14          0.5590    -0.9780    -0.3280 c3         1 C7M       0.120100
     15 O16          0.4150    -1.6630     0.8910 oh         1 C7M      -0.593800
     16 C17         -0.2450     0.3300    -0.3410 c3         1 C7M       0.105500
     17 C19          0.3680     1.4500     0.5090 c3         1 C7M      -0.055100
     18 C20         -0.4970     2.6790     0.5760 ca         1 C7M      -0.134300
     19 C21         -1.3470     2.8940     1.6580 ca         1 C7M      -0.121500
     20 C22         -2.1910     3.9960     1.6910 ca         1 C7M      -0.125000
     21 C23         -2.1840     4.9070     0.6430 ca         1 C7M      -0.118000
     22 C24         -1.3260     4.7110    -0.4340 ca         1 C7M      -0.125000
     23 C25         -0.4960     3.5990    -0.4700 ca         1 C7M      -0.121500
     24 N26         -1.6320     0.0620     0.1490 ny         1 C7M      -0.778000
     25 C29         -2.4210    -0.9750    -0.5820 c3         1 C7M       0.189100
     26 C30         -3.7970    -1.1050     0.0040 ca         1 C7M      -0.141300
     27 C31         -4.0720    -2.1640     0.8570 ca         1 C7M      -0.086000
     28 C32         -5.3530    -2.3410     1.3580 ca         1 C7M       0.026400
     29 CL33        -5.6760    -3.6750     2.4070 cl         1 C7M      -0.045400
     30 C34         -6.3720    -1.4660     1.0260 ca         1 C7M      -0.066000
     31 C35         -6.0970    -0.3880     0.1990 ca         1 C7M      -0.140000
     32 C36         -4.8210    -0.2030    -0.3170 ca         1 C7M       0.014800
     33 N37         -4.5290     0.8680    -1.1660 na         1 C7M      -0.266300
     34 C38         -5.4000     1.5650    -1.9900 cc         1 C7M       0.471400
     35 N39         -4.8970     2.6610    -2.3870 n2         1 C7M      -0.538800
     36 N40         -3.5920     2.6780    -1.8550 na         1 C7M      -0.006900
     37 N41         -3.6280     1.8580    -0.6910 na         1 C7M      -0.168700
     38 H42          8.5120     2.4620     0.8620 h1         1 C7M       0.051700
     39 H43          7.0900     2.9310     1.8250 h1         1 C7M       0.051700
     40 H44          8.6370     2.5970     2.6250 h1         1 C7M       0.051700
     41 H45          7.0490    -1.5070     2.2570 ha         1 C7M       0.153500
     42 H46          5.6030    -2.7940     0.7570 ha         1 C7M       0.152500
     43 H47          5.0680     0.6990    -1.6960 ha         1 C7M       0.152500
     44 H48          6.5000     1.9760    -0.2110 ha         1 C7M       0.153500
     45 H49          2.6200    -2.6420    -0.1100 hn         1 C7M       0.432800
     46 H50          2.5230    -0.1520     0.0730 h1         1 C7M       0.064700
     47 H51          2.0500    -0.1650    -1.6280 h1         1 C7M       0.064700
     48 H15          0.1410    -1.6390    -1.0910 h1         1 C7M       0.114700
     49 H52          0.9100    -1.2140     1.5870 ho         1 C7M       0.418000
     50 H18         -0.3520     0.6700    -1.3730 hx         1 C7M       0.117700
     51 H53          0.5790     1.0890     1.5200 hc         1 C7M       0.078200
     52 H54          1.3290     1.7090     0.0630 hc         1 C7M       0.078200
     53 H55         -1.3550     2.1910     2.4840 ha         1 C7M       0.136000
     54 H56         -2.8500     4.1450     2.5360 ha         1 C7M       0.153000
     55 H57         -2.8370     5.7700     0.6660 ha         1 C7M       0.154000
     56 H58         -1.3080     5.4220    -1.2490 ha         1 C7M       0.153000
     57 H59          0.1660     3.4510    -1.3150 ha         1 C7M       0.136000
     58 H27         -1.6010    -0.1810     1.1410 hn         1 C7M       0.462800
     59 H28         -2.1880     0.9410     0.0490 hn         1 C7M       0.462800
     60 H60         -2.4580    -0.6690    -1.6270 hx         1 C7M       0.111700
     61 H61         -1.8990    -1.9250    -0.5170 hx         1 C7M       0.111700
     62 H62         -3.2890    -2.8670     1.1100 ha         1 C7M       0.164000
     63 H63         -7.3700    -1.6040     1.4190 ha         1 C7M       0.175000
     64 H64         -6.8860     0.3150    -0.0340 ha         1 C7M       0.157000
     65 H65         -6.3510     1.1660    -2.3080 h5         1 C7M       0.082100
     66 H40         -3.3430     3.6190    -1.5770 hn         1 C7M       0.238700
     67 H41         -4.1160     2.3700     0.0610 hn         1 C7M       0.161700
@<TRIPOS>BOND
     1     1     2 1   
     2     1    38 1   
     3     1    39 1   
     4     1    40 1   
     5     2     3 1   
     6     3     4 ar  
     7     3     8 ar  
     8     4     5 ar  
     9     4    41 1   
    10     5     6 ar  
    11     5    42 1   
    12     6     7 ar  
    13     6     9 1   
    14     7     8 ar  
    15     7    43 1   
    16     8    44 1   
    17     9    10 2   
    18     9    11 2   
    19     9    12 1   
    20    12    13 1   
    21    12    45 1   
    22    13    14 1   
    23    13    46 1   
    24    13    47 1   
    25    14    15 1   
    26    14    16 1   
    27    14    48 1   
    28    15    49 1   
    29    16    17 1   
    30    16    24 1   
    31    16    50 1   
    32    17    18 1   
    33    17    51 1   
    34    17    52 1   
    35    18    19 ar  
    36    18    23 ar  
    37    19    20 ar  
    38    19    53 1   
    39    20    21 ar  
    40    20    54 1   
    41    21    22 ar  
    42    21    55 1   
    43    22    23 ar  
    44    22    56 1   
    45    23    57 1   
    46    24    25 1   
    47    24    58 1   
    48    24    59 1   
    49    25    26 1   
    50    25    60 1   
    51    25    61 1   
    52    26    27 ar  
    53    26    32 ar  
    54    27    28 ar  
    55    27    62 1   
    56    28    29 1   
    57    28    30 ar  
    58    30    31 ar  
    59    30    63 1   
    60    31    32 ar  
    61    31    64 1   
    62    32    33 1   
    63    33    34 1   
    64    33    37 1   
    65    34    35 2   
    66    34    65 1   
    67    35    36 1   
    68    36    37 1   
    69    36    66 1   
    70    37    67 1   
@<TRIPOS>SUBSTRUCTURE
     1 C7M         1 TEMP              0 ****  ****    0 ROOT
