@<TRIPOS>MOLECULE
C7N
   44    47     1     0     0
SMALL
No Charge or Current Charge


@<TRIPOS>ATOM
      1 C1           1.3210     3.8210     1.0130 ca         1 C7N      -0.101000
      2 C2           1.0200     2.4450     0.9360 ca         1 C7N      -0.033000
      3 C3           1.6240     1.5750     1.9480 cc         1 C7N      -0.086000
      4 C4           2.1160     0.3150     1.6540 cd         1 C7N      -0.097000
      5 C5           1.8840    -0.5400     0.4740 ca         1 C7N       0.008000
      6 C6           2.7830    -1.6060     0.2640 ca         1 C7N      -0.140000
      7 C7           2.6240    -2.4850    -0.8160 ca         1 C7N       0.138100
      8 C9           1.5470    -2.3250    -1.6950 ca         1 C7N      -0.203000
      9 C10          0.6250    -1.2890    -1.4800 ca         1 C7N      -0.062000
     10 C11          0.7820    -0.3950    -0.4000 ca         1 C7N      -0.051000
     11 C12         -0.2500     0.6010    -0.1640 cc         1 C7N      -0.042000
     12 C13         -1.5320     0.2170     0.0650 c2         1 C7N      -0.080400
     13 C14         -1.9920    -0.2890     1.4230 c6         1 C7N      -0.046200
     14 C15         -2.6560    -1.6810     1.3020 c6         1 C7N       0.170800
     15 C18         -3.2460    -1.2780    -1.0520 c6         1 C7N       0.170800
     16 C19         -2.5940     0.1270    -1.0220 c6         1 C7N      -0.046200
     17 C20          0.1240     1.9980    -0.0600 ca         1 C7N      -0.011000
     18 C21         -0.4430     2.9240    -0.9600 ca         1 C7N      -0.104000
     19 C22         -0.1240     4.2880    -0.8810 ca         1 C7N      -0.107000
     20 C23          0.7600     4.7380     0.1090 ca         1 C7N      -0.112000
     21 N16         -3.7500    -1.6860     0.2900 n3         1 C7N      -0.721600
     22 O8           3.5170    -3.4960    -1.0050 oh         1 C7N      -0.534100
     23 H1           2.0000     4.1840     1.7810 ha         1 C7N       0.112000
     24 H2           1.8890     1.9960     2.9130 ha         1 C7N       0.106000
     25 H3           2.7050    -0.1360     2.4460 ha         1 C7N       0.108000
     26 H4           3.6240    -1.7460     0.9380 ha         1 C7N       0.128000
     27 H5           1.4100    -3.0020    -2.5340 ha         1 C7N       0.113000
     28 H6          -0.2210    -1.1840    -2.1550 ha         1 C7N       0.115000
     29 H7          -1.1450    -0.3410     2.1200 hc         1 C7N       0.060200
     30 H8          -2.7090     0.4230     1.8530 hc         1 C7N       0.060200
     31 H9          -1.8860    -2.4190     1.0290 h1         1 C7N       0.030200
     32 H10         -3.0460    -1.9720     2.2890 h1         1 C7N       0.030200
     33 H11         -4.8780    -3.2250     1.2360 h1         1 C7N       0.029367
     34 H12         -5.3040    -2.9340    -0.4630 h1         1 C7N       0.029367
     35 H13         -3.7960    -3.7900    -0.0590 h1         1 C7N       0.029367
     36 H14         -4.0680    -1.2680    -1.7830 h1         1 C7N       0.030200
     37 H15         -2.5030    -2.0060    -1.4120 h1         1 C7N       0.030200
     38 H16         -3.3670     0.8830    -0.8360 hc         1 C7N       0.060200
     39 H17         -2.1630     0.3560    -2.0050 hc         1 C7N       0.060200
     40 H18         -1.1310     2.5840    -1.7290 ha         1 C7N       0.114000
     41 H19         -0.5640     4.9940    -1.5820 ha         1 C7N       0.113000
     42 H20          1.0070     5.7950     0.1800 ha         1 C7N       0.113000
     43 H22          3.2470    -4.0020    -1.8010 ho         1 C7N       0.464000
     44 C17         -4.4680    -2.9780     0.2480 c3         1 C7N       0.156100
@<TRIPOS>BOND
     1     1     2 ar  
     2     1    20 ar  
     3     1    23 1   
     4     2     3 1   
     5     2    17 ar  
     6     3     4 2   
     7     3    24 1   
     8     4     5 1   
     9     4    25 1   
    10     5     6 ar  
    11     5    10 ar  
    12     6     7 ar  
    13     6    26 1   
    14     7     8 ar  
    15     7    22 1   
    16     8     9 ar  
    17     8    27 1   
    18     9    10 ar  
    19     9    28 1   
    20    10    11 1   
    21    11    12 2   
    22    11    17 1   
    23    12    13 1   
    24    12    16 1   
    25    13    14 1   
    26    13    29 1   
    27    13    30 1   
    28    14    21 1   
    29    14    31 1   
    30    14    32 1   
    31    15    16 1   
    32    15    21 1   
    33    15    36 1   
    34    15    37 1   
    35    16    38 1   
    36    16    39 1   
    37    17    18 ar  
    38    18    19 ar  
    39    18    40 1   
    40    19    20 ar  
    41    19    41 1   
    42    20    42 1   
    43    21    44 1   
    44    22    43 1   
    45    33    44 1   
    46    34    44 1   
    47    35    44 1   
@<TRIPOS>SUBSTRUCTURE
     1 C7N         1 TEMP              0 ****  ****    0 ROOT
