@<TRIPOS>MOLECULE
C7N
   44    47     1     0     0
SMALL
abcg2


@<TRIPOS>ATOM
      1 C1           0.8960     3.8200     0.1940 ca         1 C7N      -0.101000
      2 C2           0.8340     2.4590     0.5160 ca         1 C7N      -0.033000
      3 C3           1.6840     1.9640     1.5940 cc         1 C7N      -0.086000
      4 C4           2.2640     0.7570     1.6940 cd         1 C7N      -0.097000
      5 C5           2.1840    -0.3480     0.7450 ca         1 C7N       0.008000
      6 C6           3.3030    -1.1740     0.6110 ca         1 C7N      -0.140000
      7 C7           3.3220    -2.2070    -0.3160 ca         1 C7N       0.138100
      8 C9           2.2040    -2.4290    -1.1170 ca         1 C7N      -0.203000
      9 C10          1.0840    -1.6300    -0.9650 ca         1 C7N      -0.062000
     10 C11          1.0410    -0.5990    -0.0300 ca         1 C7N      -0.051000
     11 C12         -0.1850     0.2060     0.1620 cc         1 C7N      -0.042000
     12 C13         -1.3330    -0.3040     0.6290 c2         1 C7N      -0.080400
     13 C14         -1.5370    -1.7460     0.9880 c6         1 C7N      -0.046200
     14 C15         -2.6870    -2.3230     0.1630 c6         1 C7N       0.170800
     15 C18         -3.7220    -0.1610    -0.0040 c6         1 C7N       0.170800
     16 C19         -2.6010     0.4780     0.8120 c6         1 C7N      -0.046200
     17 C20         -0.0330     1.6300    -0.2120 ca         1 C7N      -0.011000
     18 C21         -0.7490     2.1640    -1.2820 ca         1 C7N      -0.104000
     19 C22         -0.6530     3.5070    -1.6100 ca         1 C7N      -0.107000
     20 C23          0.1670     4.3430    -0.8590 ca         1 C7N      -0.112000
     21 N16         -3.9020    -1.5550     0.3500 n3         1 C7N      -0.721600
     22 O8           4.4410    -2.9550    -0.4060 oh         1 C7N      -0.534100
     23 H1           1.5420     4.4700     0.7720 ha         1 C7N       0.112000
     24 H2           1.9540     2.6980     2.3460 ha         1 C7N       0.106000
     25 H3           2.9540     0.6140     2.5190 ha         1 C7N       0.108000
     26 H4           4.1770    -0.9960     1.2270 ha         1 C7N       0.128000
     27 H5           2.2020    -3.2290    -1.8490 ha         1 C7N       0.113000
     28 H6           0.2130    -1.8200    -1.5810 ha         1 C7N       0.115000
     29 H7          -0.6440    -2.3510     0.8380 hc         1 C7N       0.060200
     30 H8          -1.8020    -1.8160     2.0480 hc         1 C7N       0.060200
     31 H9          -2.3830    -2.3590    -0.8990 h1         1 C7N       0.030200
     32 H10         -2.8750    -3.3550     0.4720 h1         1 C7N       0.030200
     33 H11         -5.1670    -3.1720    -0.0260 h1         1 C7N       0.029367
     34 H12         -5.9330    -1.5880    -0.1350 h1         1 C7N       0.029367
     35 H13         -4.8880    -2.1550    -1.4470 h1         1 C7N       0.029367
     36 H14         -4.6590     0.3700     0.1850 h1         1 C7N       0.030200
     37 H15         -3.4960    -0.0370    -1.0790 h1         1 C7N       0.030200
     38 H16         -2.8820     0.4540     1.8700 hc         1 C7N       0.060200
     39 H17         -2.4950     1.5250     0.5310 hc         1 C7N       0.060200
     40 H18         -1.4000     1.5130    -1.8530 ha         1 C7N       0.114000
     41 H19         -1.2230     3.9040    -2.4400 ha         1 C7N       0.113000
     42 H20          0.2400     5.3960    -1.0980 ha         1 C7N       0.113000
     43 H22          4.3380    -3.6290    -1.0870 ho         1 C7N       0.464000
     44 C17         -5.0180    -2.1420    -0.3530 c3         1 C7N       0.156100
@<TRIPOS>BOND
     1     1     2 ar  
     2     1    20 ar  
     3     1    23 1   
     4     2     3 1   
     5     2    17 ar  
     6     3     4 2   
     7     3    24 1   
     8     4     5 1   
     9     4    25 1   
    10     5     6 ar  
    11     5    10 ar  
    12     6     7 ar  
    13     6    26 1   
    14     7     8 ar  
    15     7    22 1   
    16     8     9 ar  
    17     8    27 1   
    18     9    10 ar  
    19     9    28 1   
    20    10    11 1   
    21    11    12 2   
    22    11    17 1   
    23    12    13 1   
    24    12    16 1   
    25    13    14 1   
    26    13    29 1   
    27    13    30 1   
    28    14    21 1   
    29    14    31 1   
    30    14    32 1   
    31    15    16 1   
    32    15    21 1   
    33    15    36 1   
    34    15    37 1   
    35    16    38 1   
    36    16    39 1   
    37    17    18 ar  
    38    18    19 ar  
    39    18    40 1   
    40    19    20 ar  
    41    19    41 1   
    42    20    42 1   
    43    21    44 1   
    44    22    43 1   
    45    33    44 1   
    46    34    44 1   
    47    35    44 1   
@<TRIPOS>SUBSTRUCTURE
     1 C7N         1 TEMP              0 ****  ****    0 ROOT
