@<TRIPOS>MOLECULE
C7O
   57    60     1     0     0
SMALL
abcg2


@<TRIPOS>ATOM
      1 C1          -1.7170     1.4330     2.1820 c3         1 C7O      -0.102100
      2 C2          -2.3890     1.2190     0.8090 c6         1 C7O       0.246500
      3 C3          -4.4620     2.3500     1.1420 c2         1 C7O       0.699100
      4 C4          -4.0690    -0.2860     1.9220 c6         1 C7O       0.062600
      5 C5          -3.1140    -0.1820     0.7320 c6         1 C7O      -0.063000
      6 C6          -2.0930    -1.3340     0.8400 c6         1 C7O      -0.051900
      7 C7          -2.7060    -2.7300     0.8370 c6         1 C7O      -0.301400
      8 N1          -3.2970     2.3350     0.6540 n2         1 C7O      -0.684900
      9 N2          -5.2320     3.4800     1.1030 nv         1 C7O      -1.003200
     10 C8          -4.6620    -1.6190    -0.7590 c6         1 C7O      -0.301400
     11 C9          -3.8750    -0.3220    -0.6010 c6         1 C7O      -0.051900
     12 C10         -1.3360     1.3390    -0.3000 ca         1 C7O      -0.074300
     13 C11         -0.0180     0.9540    -0.0670 ca         1 C7O      -0.144000
     14 C12          0.9910     1.0470    -1.0230 ca         1 C7O      -0.033000
     15 C13          3.4230     0.6560    -1.3140 c          1 C7O       0.529600
     16 C14          4.5850     0.1300    -0.5370 ca         1 C7O       0.186500
     17 C15          5.3990    -0.7690     1.3860 ca         1 C7O       0.287900
     18 C21         -1.5970     1.8440    -1.5720 ca         1 C7O       0.175000
     19 S2          -3.5820    -3.0380    -0.6880 s6         1 C7O       1.078000
     20 S1          -5.3080     1.0330     1.9810 ss         1 C7O      -0.393200
     21 C20         -0.6170     1.9530    -2.5390 ca         1 C7O      -0.133000
     22 C19          0.6840     1.5580    -2.2820 ca         1 C7O      -0.097000
     23 O3           3.5670     1.0750    -2.4510 o          1 C7O      -0.582100
     24 C18          5.8520     0.1110    -1.0910 ca         1 C7O       0.402900
     25 N5           6.8980    -0.3390    -0.4060 nb         1 C7O      -0.722000
     26 C16          6.6810    -0.7740     0.8100 ca         1 C7O       0.555300
     27 N4           4.3780    -0.3160     0.7030 nb         1 C7O      -0.625000
     28 O4           7.6820    -1.2450     1.5580 os         1 C7O      -0.472300
     29 C17          8.9640    -1.3040     1.0130 c3         1 C7O       0.418600
     30 F1           9.5050    -0.0430     0.9770 f          1 C7O      -0.257000
     31 H1          -1.1250     2.3470     2.1570 hc         1 C7O       0.048700
     32 H2          -2.4740     1.5630     2.9550 hc         1 C7O       0.048700
     33 H3          -1.0650     0.6230     2.5020 hc         1 C7O       0.048700
     34 H4          -4.6530    -1.2050     1.9030 h1         1 C7O       0.074200
     35 H5          -3.5160    -0.3020     2.8600 h1         1 C7O       0.074200
     36 H6          -1.3820    -1.2690     0.0160 hc         1 C7O       0.072200
     37 H7          -1.5040    -1.2530     1.7540 hc         1 C7O       0.072200
     38 H8          -1.9310    -3.4960     0.9010 h1         1 C7O       0.104450
     39 H9          -3.4120    -2.8960     1.6520 h1         1 C7O       0.104450
     40 H10         -4.9110     4.1800     0.4510 hn         1 C7O       0.472500
     41 H11         -6.2340     3.3670     1.1010 hn         1 C7O       0.472500
     42 H12         -5.4350    -1.7530    -0.0020 h1         1 C7O       0.104450
     43 H13         -5.1470    -1.6590    -1.7360 h1         1 C7O       0.104450
     44 H14          2.3320     0.2400     0.3060 hn         1 C7O       0.178000
     45 H15         -4.5880     0.4900    -0.7390 hc         1 C7O       0.072200
     46 H16         -3.1710    -0.2550    -1.4310 hc         1 C7O       0.072200
     47 H17          0.2500     0.5620     0.9060 ha         1 C7O       0.112000
     48 H18          5.2320    -1.1340     2.3920 h4         1 C7O       0.050100
     49 H19         -0.8780     2.3500    -3.5110 ha         1 C7O       0.135000
     50 H20          1.4280     1.6510    -3.0550 ha         1 C7O       0.153000
     51 H21          6.0370     0.4660    -2.0960 h4         1 C7O       0.060100
     52 H22          9.5490    -1.9180     1.6920 h2         1 C7O       0.072200
     53 H23          8.9600    -1.7100     0.0030 h2         1 C7O       0.072200
     54 O1          -2.6240    -2.9400    -1.7930 o          1 C7O      -0.516000
     55 O2          -4.3720    -4.2630    -0.5670 o          1 C7O      -0.516000
     56 F2          -2.8300     2.2310    -1.9350 f          1 C7O      -0.173000
     57 N3           2.2610     0.6150    -0.6320 ns         1 C7O      -0.126000
@<TRIPOS>BOND
     1     1     2 1   
     2     1    31 1   
     3     1    32 1   
     4     1    33 1   
     5     2     5 1   
     6     2     8 1   
     7     2    12 1   
     8     3     8 2   
     9     3     9 1   
    10     3    20 1   
    11     4     5 1   
    12     4    20 1   
    13     4    34 1   
    14     4    35 1   
    15     5     6 1   
    16     5    11 1   
    17     6     7 1   
    18     6    36 1   
    19     6    37 1   
    20     7    19 1   
    21     7    38 1   
    22     7    39 1   
    23     9    40 1   
    24     9    41 1   
    25    10    11 1   
    26    10    19 1   
    27    10    42 1   
    28    10    43 1   
    29    11    45 1   
    30    11    46 1   
    31    12    13 ar  
    32    12    18 ar  
    33    13    14 ar  
    34    13    47 1   
    35    14    22 ar  
    36    14    57 1   
    37    15    16 1   
    38    15    23 2   
    39    15    57 1   
    40    16    24 ar  
    41    16    27 ar  
    42    17    26 ar  
    43    17    27 ar  
    44    17    48 1   
    45    18    21 ar  
    46    18    56 1   
    47    19    54 2   
    48    19    55 2   
    49    21    22 ar  
    50    21    49 1   
    51    22    50 1   
    52    24    25 ar  
    53    24    51 1   
    54    25    26 ar  
    55    26    28 1   
    56    28    29 1   
    57    29    30 1   
    58    29    52 1   
    59    29    53 1   
    60    44    57 1   
@<TRIPOS>SUBSTRUCTURE
     1 C7O         1 TEMP              0 ****  ****    0 ROOT
