@<TRIPOS>MOLECULE
C7O
   57    60     1     0     0
SMALL
No Charge or Current Charge


@<TRIPOS>ATOM
      1 C1          -1.7960     1.4930     2.2880 c3         1 C7O      -0.102100
      2 C2          -2.4590     1.2530     0.8790 c6         1 C7O       0.246500
      3 C3          -4.5830     2.4270     1.1240 c2         1 C7O       0.699100
      4 C4          -4.2990    -0.2310     1.8790 c6         1 C7O       0.062600
      5 C5          -3.2020    -0.1730     0.7740 c6         1 C7O      -0.063000
      6 C6          -2.1920    -1.3660     0.9990 c6         1 C7O      -0.051900
      7 C7          -2.8180    -2.7900     0.9090 c6         1 C7O      -0.301400
      8 N1          -3.3560     2.4310     0.8010 n2         1 C7O      -0.684900
      9 N2          -5.3530     3.5220     0.9960 nv         1 C7O      -1.003200
     10 C8          -4.6330    -1.6930    -0.8500 c6         1 C7O      -0.301400
     11 C9          -3.8560    -0.3600    -0.6510 c6         1 C7O      -0.051900
     12 C10         -1.3670     1.4070    -0.2410 ca         1 C7O      -0.074300
     13 C11         -0.0260     0.9990    -0.0070 ca         1 C7O      -0.144000
     14 C12          0.9800     1.1280    -0.9840 ca         1 C7O      -0.033000
     15 C13          3.4930     0.6590    -1.3340 c          1 C7O       0.529600
     16 C14          4.6550     0.0820    -0.5460 ca         1 C7O       0.186500
     17 C15          5.5740    -0.8620     1.3600 ca         1 C7O       0.287900
     18 C21         -1.6640     1.9480    -1.5260 ca         1 C7O       0.175000
     19 S2          -3.5770    -3.1550    -0.6940 s6         1 C7O       1.078000
     20 S1          -5.5640     1.0810     1.7090 ss         1 C7O      -0.393200
     21 C20         -0.6660     2.0790    -2.5010 ca         1 C7O      -0.133000
     22 C19          0.6510     1.6760    -2.2380 ca         1 C7O      -0.097000
     23 O3           3.6220     1.0660    -2.4860 o          1 C7O      -0.582100
     24 C18          5.9320     0.0130    -1.1710 ca         1 C7O       0.402900
     25 N5           7.0380    -0.4890    -0.5470 nb         1 C7O      -0.722000
     26 C16          6.8540    -0.9190     0.7300 ca         1 C7O       0.555300
     27 N4           4.4640    -0.3630     0.7410 nb         1 C7O      -0.625000
     28 O4           7.9140    -1.4620     1.4220 os         1 C7O      -0.472300
     29 C17          9.2640    -1.2940     0.9570 c3         1 C7O       0.418600
     30 F1           9.6670    -0.0090     1.1220 f          1 C7O      -0.257000
     31 H1          -1.1930     2.4090     2.2810 hc         1 C7O       0.048700
     32 H2          -2.5390     1.6230     3.0840 hc         1 C7O       0.048700
     33 H3          -1.1330     0.6870     2.6130 hc         1 C7O       0.048700
     34 H4          -4.8320    -1.1880     1.8790 h1         1 C7O       0.074200
     35 H5          -3.8460    -0.1230     2.8730 h1         1 C7O       0.074200
     36 H6          -1.3740    -1.3070     0.2680 hc         1 C7O       0.072200
     37 H7          -1.7160    -1.2890     1.9840 hc         1 C7O       0.072200
     38 H8          -2.0490    -3.5610     1.0460 h1         1 C7O       0.104450
     39 H9          -3.6000    -2.9460     1.6610 h1         1 C7O       0.104450
     40 H10         -4.9580     4.1800     0.3360 hn         1 C7O       0.472500
     41 H11         -6.3310     3.3090     0.8590 hn         1 C7O       0.472500
     42 H12         -5.4430    -1.8130    -0.1210 h1         1 C7O       0.104450
     43 H13         -5.0590    -1.7490    -1.8590 h1         1 C7O       0.104450
     44 H14          2.3610     0.3110     0.3010 hn         1 C7O       0.178000
     45 H15         -4.5360     0.4720    -0.8780 hc         1 C7O       0.072200
     46 H16         -3.0780    -0.3160    -1.4250 hc         1 C7O       0.072200
     47 H17          0.2570     0.5590     0.9440 ha         1 C7O       0.112000
     48 H18          5.4450    -1.2240     2.3790 h4         1 C7O       0.050100
     49 H19         -0.9190     2.4920    -3.4730 ha         1 C7O       0.135000
     50 H20          1.3920     1.7940    -3.0230 ha         1 C7O       0.153000
     51 H21          6.0770     0.3630    -2.1930 h4         1 C7O       0.060100
     52 H22          9.9430    -1.9370     1.5270 h2         1 C7O       0.072200
     53 H23          9.3610    -1.5660    -0.1010 h2         1 C7O       0.072200
     54 O1          -2.5390    -3.1040    -1.7320 o          1 C7O      -0.516000
     55 O2          -4.4260    -4.3440    -0.5610 o          1 C7O      -0.516000
     56 F2          -2.9160     2.3330    -1.8750 f          1 C7O      -0.173000
     57 N3           2.2880     0.6840    -0.6380 ns         1 C7O      -0.126000
@<TRIPOS>BOND
     1     1     2 1   
     2     1    31 1   
     3     1    32 1   
     4     1    33 1   
     5     2     5 1   
     6     2     8 1   
     7     2    12 1   
     8     3     8 2   
     9     3     9 1   
    10     3    20 1   
    11     4     5 1   
    12     4    20 1   
    13     4    34 1   
    14     4    35 1   
    15     5     6 1   
    16     5    11 1   
    17     6     7 1   
    18     6    36 1   
    19     6    37 1   
    20     7    19 1   
    21     7    38 1   
    22     7    39 1   
    23     9    40 1   
    24     9    41 1   
    25    10    11 1   
    26    10    19 1   
    27    10    42 1   
    28    10    43 1   
    29    11    45 1   
    30    11    46 1   
    31    12    13 ar  
    32    12    18 ar  
    33    13    14 ar  
    34    13    47 1   
    35    14    22 ar  
    36    14    57 1   
    37    15    16 1   
    38    15    23 2   
    39    15    57 1   
    40    16    24 ar  
    41    16    27 ar  
    42    17    26 ar  
    43    17    27 ar  
    44    17    48 1   
    45    18    21 ar  
    46    18    56 1   
    47    19    54 2   
    48    19    55 2   
    49    21    22 ar  
    50    21    49 1   
    51    22    50 1   
    52    24    25 ar  
    53    24    51 1   
    54    25    26 ar  
    55    26    28 1   
    56    28    29 1   
    57    29    30 1   
    58    29    52 1   
    59    29    53 1   
    60    44    57 1   
@<TRIPOS>SUBSTRUCTURE
     1 C7O         1 TEMP              0 ****  ****    0 ROOT
