@<TRIPOS>MOLECULE
C7Q
   58    61     1     0     0
SMALL
bcc


@<TRIPOS>ATOM
      1 C1           0.8840    -2.8780     2.2260 ca         1 C7Q      -0.192000
      2 C2           1.5890    -3.2910     1.1030 ca         1 C7Q       0.135100
      3 C3           2.2160    -2.3050     0.3400 ca         1 C7Q       0.002400
      4 C4           2.1460    -0.9650     0.6720 ca         1 C7Q      -0.061000
      5 C5           1.4210    -0.5510     1.7850 ca         1 C7Q      -0.094300
      6 C6           0.7990    -1.5320     2.5500 ca         1 C7Q      -0.108000
      7 O7           1.7260    -4.5770     0.7170 os         1 C7Q      -0.314900
      8 C8           0.5910    -5.4480     0.8510 c3         1 C7Q       0.178600
      9 C9           1.3410     0.8910     2.2110 c3         1 C7Q      -0.023100
     10 C10          0.5160     1.8610     1.3530 c3         1 C7Q       0.041700
     11 N11         -0.8080     1.3870     1.0090 ns         1 C7Q      -0.579900
     12 C12          1.2550     2.4160     0.1300 c          1 C7Q       0.689100
     13 C13         -1.0800     0.6570    -0.0890 c          1 C7Q       0.676700
     14 C14         -2.5340     0.3670    -0.3190 ca         1 C7Q      -0.155600
     15 O15         -0.2260     0.3030    -0.8840 o          1 C7Q      -0.571100
     16 N16          0.5190     3.2600    -0.6180 ns         1 C7Q      -0.527900
     17 C17          1.0260     3.8730    -1.7900 cx         1 C7Q      -0.016900
     18 C18          1.8610     5.0770    -1.6060 c2         1 C7Q       0.445200
     19 N19          2.1030     5.5650    -0.4660 n2         1 C7Q      -0.738100
     20 O20          2.4270     2.1790    -0.0950 o          1 C7Q      -0.579100
     21 C21          1.3470     2.9850    -2.9650 cx         1 C7Q      -0.109900
     22 C22          0.1370     3.8440    -3.0120 cx         1 C7Q      -0.109900
     23 C23         -3.3830     1.4320    -0.5910 ca         1 C7Q      -0.106000
     24 C24         -4.7120     1.2050    -0.9270 ca         1 C7Q      -0.138000
     25 C25         -5.1850    -0.0950    -0.9790 ca         1 C7Q      -0.107000
     26 C26         -4.3390    -1.1600    -0.6860 ca         1 C7Q      -0.135000
     27 C27         -3.0060    -0.9530    -0.3500 ca         1 C7Q      -0.019300
     28 C28         -2.0780    -2.0750     0.0280 c3         1 C7Q      -0.050100
     29 C29         -2.6560    -3.4940     0.0550 c3         1 C7Q      -0.039200
     30 CL           3.1070    -2.7840    -1.0690 cl         1 C7Q      -0.098400
     31 C31         -0.5750    -4.8850     0.1100 c2         1 C7Q      -0.211200
     32 C32         -1.6300    -4.3580     0.7210 c2         1 C7Q      -0.145200
     33 H1           0.3890    -3.6030     2.8570 ha         1 C7Q       0.133000
     34 H2           2.6540    -0.2380     0.0550 ha         1 C7Q       0.175000
     35 H3           0.2380    -1.2460     3.4320 ha         1 C7Q       0.124000
     36 H4           0.9310    -6.3950     0.4330 h1         1 C7Q       0.055700
     37 H5           0.3460    -5.6210     1.9030 h1         1 C7Q       0.055700
     38 H6           0.9020     0.9180     3.2100 hc         1 C7Q       0.058700
     39 H7           2.3420     1.3120     2.3190 hc         1 C7Q       0.058700
     40 H8           0.3490     2.7370     1.9900 h1         1 C7Q       0.060700
     41 H9          -1.5580     1.5960     1.6500 hn         1 C7Q       0.321500
     42 H10         -0.4080     3.5090    -0.3120 hn         1 C7Q       0.317500
     43 H11          2.2420     5.5040    -2.5400 h4         1 C7Q      -0.036200
     44 H12          2.6900     6.3890    -0.5570 hn         1 C7Q       0.375400
     45 H13          2.2010     3.2510    -3.5760 hc         1 C7Q       0.084700
     46 H14          1.2130     1.9230    -2.8070 hc         1 C7Q       0.084700
     47 H15         -0.8310     3.3750    -2.8910 hc         1 C7Q       0.084700
     48 H16          0.1370     4.7180    -3.6500 hc         1 C7Q       0.084700
     49 H17         -3.0060     2.4470    -0.5540 ha         1 C7Q       0.128000
     50 H18         -5.3660     2.0390    -1.1440 ha         1 C7Q       0.135000
     51 H19         -6.2170    -0.2890    -1.2420 ha         1 C7Q       0.134000
     52 H20         -4.7360    -2.1660    -0.7200 ha         1 C7Q       0.136000
     53 H21         -1.2140    -2.0790    -0.6400 hc         1 C7Q       0.070700
     54 H22         -1.6590    -1.8480     1.0140 hc         1 C7Q       0.070700
     55 H23         -3.5920    -3.5230     0.6170 hc         1 C7Q       0.049700
     56 H24         -2.8690    -3.8360    -0.9600 hc         1 C7Q       0.049700
     57 H25         -0.4720    -4.8000    -0.9690 ha         1 C7Q       0.139000
     58 H26         -1.7020    -4.4300     1.8040 ha         1 C7Q       0.115000
@<TRIPOS>BOND
     1     1     2 ar  
     2     1     6 ar  
     3     1    33 1   
     4     2     3 ar  
     5     2     7 1   
     6     3     4 ar  
     7     3    30 1   
     8     4     5 ar  
     9     4    34 1   
    10     5     6 ar  
    11     5     9 1   
    12     6    35 1   
    13     7     8 1   
    14     8    31 1   
    15     8    36 1   
    16     8    37 1   
    17     9    10 1   
    18     9    38 1   
    19     9    39 1   
    20    10    11 1   
    21    10    12 1   
    22    10    40 1   
    23    11    13 1   
    24    11    41 1   
    25    12    16 1   
    26    12    20 2   
    27    13    14 1   
    28    13    15 2   
    29    14    23 ar  
    30    14    27 ar  
    31    16    17 1   
    32    16    42 1   
    33    17    18 1   
    34    17    21 1   
    35    17    22 1   
    36    18    19 2   
    37    18    43 1   
    38    19    44 1   
    39    21    22 1   
    40    21    45 1   
    41    21    46 1   
    42    22    47 1   
    43    22    48 1   
    44    23    24 ar  
    45    23    49 1   
    46    24    25 ar  
    47    24    50 1   
    48    25    26 ar  
    49    25    51 1   
    50    26    27 ar  
    51    26    52 1   
    52    27    28 1   
    53    28    29 1   
    54    28    53 1   
    55    28    54 1   
    56    29    32 1   
    57    29    55 1   
    58    29    56 1   
    59    31    32 2   
    60    31    57 1   
    61    32    58 1   
@<TRIPOS>SUBSTRUCTURE
     1 C7Q         1 TEMP              0 ****  ****    0 ROOT
