@<TRIPOS>MOLECULE
C7Q
   58    61     1     0     0
SMALL
No Charge or Current Charge


@<TRIPOS>ATOM
      1 C1           0.7670    -2.7250     1.8660 ca         1 C7Q      -0.174000
      2 C2           1.6540    -2.9340     0.7880 ca         1 C7Q       0.135100
      3 C3           2.4130    -1.8460     0.3040 ca         1 C7Q       0.094000
      4 C4           2.2560    -0.5660     0.8620 ca         1 C7Q      -0.043000
      5 C5           1.3290    -0.3470     1.9020 ca         1 C7Q      -0.094300
      6 C6           0.6020    -1.4400     2.4110 ca         1 C7Q      -0.090000
      7 O7           1.7890    -4.1740     0.1770 os         1 C7Q      -0.338100
      8 C8           0.7500    -5.1750     0.2190 c3         1 C7Q       0.201800
      9 C9           1.1350     1.0480     2.4980 c3         1 C7Q      -0.023100
     10 C10          0.4200     2.1020     1.5950 c3         1 C7Q       0.041700
     11 N11         -0.9500     1.6900     1.1580 ns         1 C7Q      -0.512900
     12 C12          1.3300     2.6920     0.4640 c          1 C7Q       0.622100
     13 C13         -1.2730     0.7200     0.2250 c          1 C7Q       0.609700
     14 C14         -2.7530     0.4100     0.0890 ca         1 C7Q      -0.155600
     15 O15         -0.4270     0.2270    -0.5030 o          1 C7Q      -0.571100
     16 N16          0.7420     2.8890    -0.7690 ns         1 C7Q      -0.460900
     17 C17          1.4290     3.3550    -1.9550 cx         1 C7Q      -0.016900
     18 C18          1.9150     4.7770    -1.8590 c2         1 C7Q       0.445200
     19 N19          1.1100     5.7770    -1.9580 n2         1 C7Q      -0.738100
     20 O20          2.5110     2.9570     0.6500 o          1 C7Q      -0.579100
     21 C21          2.2490     2.3320    -2.7120 cx         1 C7Q      -0.109900
     22 C22          0.9370     2.8140    -3.2800 cx         1 C7Q      -0.109900
     23 C23         -3.6950     1.4510     0.2740 ca         1 C7Q      -0.088000
     24 C24         -5.0680     1.2180     0.1110 ca         1 C7Q      -0.120000
     25 C25         -5.5260    -0.0560    -0.2430 ca         1 C7Q      -0.089000
     26 C26         -4.6110    -1.1040    -0.4200 ca         1 C7Q      -0.117000
     27 C27         -3.2240    -0.8960    -0.2430 ca         1 C7Q      -0.019300
     28 C28         -2.2460    -2.0720    -0.3700 c3         1 C7Q      -0.050100
     29 C29         -2.8010    -3.4950    -0.1060 c3         1 C7Q      -0.039200
     30 Cl           3.5470    -2.0600    -1.0320 cl         1 C7Q      -0.190000
     31 C31         -0.5050    -4.5460    -0.3520 c2         1 C7Q      -0.261200
     32 C32         -1.6840    -4.4440     0.2860 c2         1 C7Q      -0.195200
     33 H1           0.1890    -3.5450     2.2810 ha         1 C7Q       0.115000
     34 H2           2.8460     0.2570     0.4700 ha         1 C7Q       0.157000
     35 H3          -0.1030    -1.2940     3.2270 ha         1 C7Q       0.106000
     36 H4           1.0380    -6.0460    -0.3840 h1         1 C7Q       0.055700
     37 H5           0.5810    -5.5230     1.2470 h1         1 C7Q       0.055700
     38 H6           0.5560     0.9660     3.4250 hc         1 C7Q       0.058700
     39 H7           2.1070     1.4480     2.8110 hc         1 C7Q       0.058700
     40 H8           0.2520     2.9710     2.2430 h1         1 C7Q       0.060700
     41 H9          -1.7340     2.0470     1.6930 hn         1 C7Q       0.321500
     42 H10         -0.2310     2.6170    -0.8350 hn         1 C7Q       0.317500
     43 H11          2.9770     4.9410    -1.7030 h4         1 C7Q      -0.036200
     44 H12          1.6510     6.6490    -1.8640 hn         1 C7Q       0.375400
     45 H13          3.1630     2.6680    -3.1950 hc         1 C7Q       0.084700
     46 H14          2.2890     1.3190    -2.3200 hc         1 C7Q       0.084700
     47 H15          0.0990     2.1220    -3.2730 hc         1 C7Q       0.084700
     48 H16          0.9710     3.4740    -4.1440 hc         1 C7Q       0.084700
     49 H17         -3.3680     2.4610     0.5140 ha         1 C7Q       0.110000
     50 H18         -5.7780     2.0320     0.2460 ha         1 C7Q       0.117000
     51 H19         -6.5900    -0.2340    -0.3790 ha         1 C7Q       0.116000
     52 H20         -4.9940    -2.0840    -0.6920 ha         1 C7Q       0.118000
     53 H21         -1.7740    -2.0510    -1.3600 hc         1 C7Q       0.070700
     54 H22         -1.4410    -1.9270     0.3570 hc         1 C7Q       0.070700
     55 H23         -3.5240    -3.4450     0.7170 hc         1 C7Q       0.049700
     56 H24         -3.3400    -3.8650    -0.9870 hc         1 C7Q       0.049700
     57 H25         -0.3320    -4.0170    -1.2900 ha         1 C7Q       0.189000
     58 H26         -1.8300    -4.9270     1.2550 ha         1 C7Q       0.165000
@<TRIPOS>BOND
     1     1     2 ar  
     2     1     6 ar  
     3     1    33 1   
     4     2     3 ar  
     5     2     7 1   
     6     3     4 ar  
     7     3    30 1   
     8     4     5 ar  
     9     4    34 1   
    10     5     6 ar  
    11     5     9 1   
    12     6    35 1   
    13     7     8 1   
    14     8    31 1   
    15     8    36 1   
    16     8    37 1   
    17     9    10 1   
    18     9    38 1   
    19     9    39 1   
    20    10    11 1   
    21    10    12 1   
    22    10    40 1   
    23    11    13 1   
    24    11    41 1   
    25    12    16 1   
    26    12    20 2   
    27    13    14 1   
    28    13    15 2   
    29    14    23 ar  
    30    14    27 ar  
    31    16    17 1   
    32    16    42 1   
    33    17    18 1   
    34    17    21 1   
    35    17    22 1   
    36    18    19 2   
    37    18    43 1   
    38    19    44 1   
    39    21    22 1   
    40    21    45 1   
    41    21    46 1   
    42    22    47 1   
    43    22    48 1   
    44    23    24 ar  
    45    23    49 1   
    46    24    25 ar  
    47    24    50 1   
    48    25    26 ar  
    49    25    51 1   
    50    26    27 ar  
    51    26    52 1   
    52    27    28 1   
    53    28    29 1   
    54    28    53 1   
    55    28    54 1   
    56    29    32 1   
    57    29    55 1   
    58    29    56 1   
    59    31    32 2   
    60    31    57 1   
    61    32    58 1   
@<TRIPOS>SUBSTRUCTURE
     1 C7Q         1 TEMP              0 ****  ****    0 ROOT
