@<TRIPOS>MOLECULE
C7T
   63    67     1     0     0
SMALL
abcg2


@<TRIPOS>ATOM
      1 C1          -4.4150     5.2820     0.5140 cx         1 C7T      -0.098400
      2 C2          -4.2530     3.7840     0.5780 cx         1 C7T       0.091500
      3 C4           3.2970     2.3290     0.9640 ca         1 C7T      -0.126000
      4 C7           1.9540     1.5720    -1.3340 ca         1 C7T      -0.084000
      5 C8           1.2730     2.2830    -0.3560 ca         1 C7T      -0.080300
      6 C12         -0.1800     2.6220    -0.5330 c3         1 C7T      -0.039100
      7 C14         -2.5450     2.1410     0.1190 c          1 C7T       0.585100
      8 C21         -0.6140    -1.9620     0.6050 ca         1 C7T      -0.190600
      9 C22         -1.7060    -2.5940     0.0300 ca         1 C7T      -0.037000
     10 C23          0.6500    -3.9960     0.3960 ca         1 C7T      -0.206000
     11 C24          0.5810    -2.6630     0.7880 ca         1 C7T       0.188100
     12 C3          -4.5890     4.4770    -0.7200 cx         1 C7T      -0.098400
     13 C5           3.9800     1.6100    -0.0100 ca         1 C7T       0.118100
     14 C6           3.2890     1.2410    -1.1590 ca         1 C7T       0.107000
     15 C9           1.9640     2.6600     0.7930 ca         1 C7T      -0.085000
     16 CL           4.1120     0.3550    -2.3950 cl         1 C7T      -0.188000
     17 O11          5.2890     1.2830     0.1230 os         1 C7T      -0.347100
     18 C13         -1.0870     1.7590     0.3630 c3         1 C7T       0.036700
     19 O15         -3.2680     1.5200    -0.6340 o          1 C7T      -0.570100
     20 N16         -2.9480     3.2590     0.7640 ns         1 C7T      -0.479900
     21 N17         -0.8900     0.3600     0.1120 ns         1 C7T      -0.488900
     22 C18          5.5740     0.2870     1.1190 c3         1 C7T       0.199800
     23 C19         -0.7250    -0.5500     1.0900 c          1 C7T       0.637700
     24 O20         -0.6880    -0.2730     2.2760 o          1 C7T      -0.584100
     25 O25          1.5930    -1.9680     1.3250 os         1 C7T      -0.334100
     26 C26          2.9070    -2.5100     1.3310 c3         1 C7T       0.198800
     27 C27          3.8030    -1.3600     1.6470 c2         1 C7T      -0.198200
     28 C28          4.7880    -0.9550     0.8570 c2         1 C7T      -0.245200
     29 C29         -5.3070     3.0250     1.2070 c1         1 C7T       0.319900
     30 N30         -6.1470     2.4180     1.7080 n1         1 C7T      -0.437000
     31 C31         -0.4620    -4.6120    -0.1630 ca         1 C7T      -0.050000
     32 C32         -1.6600    -3.9310    -0.3570 ca         1 C7T      -0.110300
     33 C33         -2.8620    -4.5950    -0.9470 cy         1 C7T      -0.049400
     34 C34         -2.7510    -5.3570    -2.2840 cy         1 C7T       0.137300
     35 N35         -3.6460    -6.3910    -1.7450 n6         1 C7T      -0.843400
     36 C36         -3.3530    -5.9420    -0.3760 cy         1 C7T       0.137300
     37 H1          -5.2880     5.7050     0.9890 hc         1 C7T       0.087700
     38 H2          -3.5050     5.8560     0.6360 hc         1 C7T       0.087700
     39 H3           3.8180     2.6400     1.8610 ha         1 C7T       0.125000
     40 H4           1.4450     1.2690    -2.2400 ha         1 C7T       0.127000
     41 H5          -0.3500     3.6730    -0.2900 hc         1 C7T       0.059700
     42 H6          -0.4730     2.4900    -1.5770 hc         1 C7T       0.059700
     43 H7          -2.6240    -2.0320    -0.1100 ha         1 C7T       0.130000
     44 H8           1.5580    -4.5700     0.5230 ha         1 C7T       0.120000
     45 H9          -5.5860     4.3360    -1.1130 hc         1 C7T       0.087700
     46 H10         -3.8010     4.4870    -1.4610 hc         1 C7T       0.087700
     47 H11          1.4580     3.2270     1.5660 ha         1 C7T       0.115000
     48 H12         -0.8300     1.9450     1.4080 h1         1 C7T       0.095700
     49 H13         -2.3740     3.6590     1.4910 hn         1 C7T       0.328500
     50 H14         -0.9210     0.0390    -0.8430 hn         1 C7T       0.330500
     51 H15          6.6480     0.1150     1.0440 h1         1 C7T       0.058700
     52 H16          5.3620     0.6720     2.1220 h1         1 C7T       0.058700
     53 H17          2.9850    -3.3040     2.0830 h1         1 C7T       0.045700
     54 H18          3.1630    -2.9390     0.3570 h1         1 C7T       0.045700
     55 H19          3.5830    -0.8160     2.5610 ha         1 C7T       0.189000
     56 H20          5.0010    -1.4860    -0.0670 ha         1 C7T       0.187000
     57 H21         -0.3750    -5.6530    -0.4480 ha         1 C7T       0.111000
     58 H22         -3.6870    -3.8820    -0.9900 hc         1 C7T       0.077700
     59 H23         -3.1150    -4.8450    -3.1780 h1         1 C7T       0.047950
     60 H24         -1.7290    -5.7030    -2.4770 h1         1 C7T       0.047950
     61 H25         -3.3600    -7.3410    -1.9450 hn         1 C7T       0.405000
     62 H27         -2.5460    -6.4970     0.1140 h1         1 C7T       0.047950
     63 H28         -4.2100    -5.9100     0.3010 h1         1 C7T       0.047950
@<TRIPOS>BOND
     1     1     2 1   
     2     1    12 1   
     3     1    37 1   
     4     1    38 1   
     5     2    12 1   
     6     2    20 1   
     7     2    29 1   
     8     3    13 ar  
     9     3    15 ar  
    10     3    39 1   
    11     4     5 ar  
    12     4    14 ar  
    13     4    40 1   
    14     5     6 1   
    15     5    15 ar  
    16     6    18 1   
    17     6    41 1   
    18     6    42 1   
    19     7    18 1   
    20     7    19 2   
    21     7    20 1   
    22     8     9 ar  
    23     8    11 ar  
    24     8    23 1   
    25     9    32 ar  
    26     9    43 1   
    27    10    11 ar  
    28    10    31 ar  
    29    10    44 1   
    30    11    25 1   
    31    12    45 1   
    32    12    46 1   
    33    13    14 ar  
    34    13    17 1   
    35    14    16 1   
    36    15    47 1   
    37    17    22 1   
    38    18    21 1   
    39    18    48 1   
    40    20    49 1   
    41    21    23 1   
    42    21    50 1   
    43    22    28 1   
    44    22    51 1   
    45    22    52 1   
    46    23    24 2   
    47    25    26 1   
    48    26    27 1   
    49    26    53 1   
    50    26    54 1   
    51    27    28 2   
    52    27    55 1   
    53    28    56 1   
    54    29    30 3   
    55    31    32 ar  
    56    31    57 1   
    57    32    33 1   
    58    33    34 1   
    59    33    36 1   
    60    33    58 1   
    61    34    35 1   
    62    34    59 1   
    63    34    60 1   
    64    35    36 1   
    65    35    61 1   
    66    36    62 1   
    67    36    63 1   
@<TRIPOS>SUBSTRUCTURE
     1 C7T         1 TEMP              0 ****  ****    0 ROOT
