@<TRIPOS>MOLECULE
C7T
   63    67     1     0     0
SMALL
No Charge or Current Charge


@<TRIPOS>ATOM
      1 C1          -4.5070     5.4970     0.1130 cx         1 C7T      -0.098400
      2 C2          -4.4480     4.0370     0.5030 cx         1 C7T       0.091500
      3 C4           3.1350     1.7480     1.0600 ca         1 C7T      -0.126000
      4 C7           1.8920     1.9710    -1.4490 ca         1 C7T      -0.084000
      5 C8           1.1450     2.2230    -0.2810 ca         1 C7T      -0.080300
      6 C12         -0.3280     2.6250    -0.3860 c3         1 C7T      -0.039100
      7 C14         -2.7840     2.1890     0.2140 c          1 C7T       0.585100
      8 C21         -0.4080    -1.9660     0.6760 ca         1 C7T      -0.190600
      9 C22         -1.5240    -2.5560     0.0400 ca         1 C7T      -0.037000
     10 C23          0.7660    -4.1010     0.5300 ca         1 C7T      -0.206000
     11 C24          0.7470    -2.7420     0.9070 ca         1 C7T       0.188100
     12 C3          -4.8920     4.4350    -0.8880 cx         1 C7T      -0.098400
     13 C5           3.8750     1.4780    -0.1100 ca         1 C7T       0.118100
     14 C6           3.2480     1.6090    -1.3670 ca         1 C7T       0.107000
     15 C9           1.7840     2.1310     0.9720 ca         1 C7T      -0.085000
     16 Cl           4.1380     1.2870    -2.8560 cl         1 C7T      -0.188000
     17 O11          5.2010     1.0830    -0.0530 os         1 C7T      -0.347100
     18 C13         -1.3060     1.7840     0.4830 c3         1 C7T       0.036700
     19 O15         -3.5880     1.4520    -0.3440 o          1 C7T      -0.570100
     20 N16         -3.1360     3.4510     0.6540 ns         1 C7T      -0.479900
     21 N17         -1.1220     0.3280     0.2590 ns         1 C7T      -0.488900
     22 C18          5.6780     0.1970     0.9770 c3         1 C7T       0.199800
     23 C19         -0.4580    -0.5270     1.1120 c          1 C7T       0.637700
     24 O20         -0.0220    -0.1440     2.1890 o          1 C7T      -0.584100
     25 O25          1.8590    -2.1210     1.4350 os         1 C7T      -0.334100
     26 C26          3.1350    -2.7590     1.5820 c3         1 C7T       0.198800
     27 C27          4.1180    -1.6360     1.8140 c2         1 C7T      -0.198200
     28 C28          4.8830    -1.0860     0.8550 c2         1 C7T      -0.245200
     29 C29         -5.4260     3.5180     1.4530 c1         1 C7T       0.319900
     30 N30         -6.1940     3.1280     2.2380 n1         1 C7T      -0.437000
     31 C31         -0.3540    -4.6820    -0.0870 ca         1 C7T      -0.050000
     32 C32         -1.5050    -3.9120    -0.3420 ca         1 C7T      -0.110300
     33 C33         -2.7380    -4.5250    -1.0180 cy         1 C7T      -0.049400
     34 C34         -2.5090    -5.3560    -2.3270 cy         1 C7T       0.137300
     35 N35         -3.6720    -6.1760    -1.8610 n6         1 C7T      -0.843400
     36 C36         -3.2780    -5.8820    -0.4460 cy         1 C7T       0.137300
     37 H1          -5.3020     6.1110     0.5300 hc         1 C7T       0.087700
     38 H2          -3.5680     6.0230    -0.0460 hc         1 C7T       0.087700
     39 H3           3.5980     1.6750     2.0400 ha         1 C7T       0.125000
     40 H4           1.4230     2.0520    -2.4260 ha         1 C7T       0.127000
     41 H5          -0.4270     3.6830    -0.1140 hc         1 C7T       0.059700
     42 H6          -0.6560     2.5560    -1.4310 hc         1 C7T       0.059700
     43 H7          -2.4250    -1.9700    -0.1330 ha         1 C7T       0.130000
     44 H8           1.6410    -4.7210     0.7010 ha         1 C7T       0.120000
     45 H9          -5.9460     4.3340    -1.1390 hc         1 C7T       0.087700
     46 H10         -4.2110     4.2450    -1.7130 hc         1 C7T       0.087700
     47 H11          1.2320     2.3440     1.8840 ha         1 C7T       0.115000
     48 H12         -1.1160     2.0080     1.5400 h1         1 C7T       0.095700
     49 H13         -2.4120     3.9860     1.1210 hn         1 C7T       0.328500
     50 H14         -1.4830    -0.0770    -0.5960 hn         1 C7T       0.330500
     51 H15          6.7450    -0.0140     0.8300 h1         1 C7T       0.058700
     52 H16          5.5620     0.6400     1.9750 h1         1 C7T       0.058700
     53 H17          3.1310    -3.4600     2.4270 h1         1 C7T       0.045700
     54 H18          3.4130    -3.3030     0.6700 h1         1 C7T       0.045700
     55 H19          4.0720    -1.2050     2.8160 ha         1 C7T       0.189000
     56 H20          4.8770    -1.4960    -0.1570 ha         1 C7T       0.187000
     57 H21         -0.3170    -5.7310    -0.3700 ha         1 C7T       0.111000
     58 H22         -3.5420    -3.7880    -1.1410 hc         1 C7T       0.077700
     59 H23         -2.6480    -4.7930    -3.2580 h1         1 C7T       0.047950
     60 H24         -1.5470    -5.8840    -2.3550 h1         1 C7T       0.047950
     61 H25         -3.7030    -7.1650    -2.1390 hn         1 C7T       0.405000
     62 H27         -2.4950    -6.5320    -0.0360 h1         1 C7T       0.047950
     63 H28         -4.0940    -5.7820     0.2800 h1         1 C7T       0.047950
@<TRIPOS>BOND
     1     1     2 1   
     2     1    12 1   
     3     1    37 1   
     4     1    38 1   
     5     2    12 1   
     6     2    20 1   
     7     2    29 1   
     8     3    13 ar  
     9     3    15 ar  
    10     3    39 1   
    11     4     5 ar  
    12     4    14 ar  
    13     4    40 1   
    14     5     6 1   
    15     5    15 ar  
    16     6    18 1   
    17     6    41 1   
    18     6    42 1   
    19     7    18 1   
    20     7    19 2   
    21     7    20 1   
    22     8     9 ar  
    23     8    11 ar  
    24     8    23 1   
    25     9    32 ar  
    26     9    43 1   
    27    10    11 ar  
    28    10    31 ar  
    29    10    44 1   
    30    11    25 1   
    31    12    45 1   
    32    12    46 1   
    33    13    14 ar  
    34    13    17 1   
    35    14    16 1   
    36    15    47 1   
    37    17    22 1   
    38    18    21 1   
    39    18    48 1   
    40    20    49 1   
    41    21    23 1   
    42    21    50 1   
    43    22    28 1   
    44    22    51 1   
    45    22    52 1   
    46    23    24 2   
    47    25    26 1   
    48    26    27 1   
    49    26    53 1   
    50    26    54 1   
    51    27    28 2   
    52    27    55 1   
    53    28    56 1   
    54    29    30 3   
    55    31    32 ar  
    56    31    57 1   
    57    32    33 1   
    58    33    34 1   
    59    33    36 1   
    60    33    58 1   
    61    34    35 1   
    62    34    59 1   
    63    34    60 1   
    64    35    36 1   
    65    35    61 1   
    66    36    62 1   
    67    36    63 1   
@<TRIPOS>SUBSTRUCTURE
     1 C7T         1 TEMP              0 ****  ****    0 ROOT
