@<TRIPOS>MOLECULE
C7U
   80    84     1     0     0
SMALL
No Charge or Current Charge


@<TRIPOS>ATOM
      1 CBR         -7.0740     0.2080     1.2000 c5         1 C7U      -0.147700
      2 CBM         -6.8750     1.1350    -0.0490 c5         1 C7U       0.124300
      3 Cl          -8.4550     1.6230    -0.8140 cl         1 C7U      -0.281000
      4 CAS         -6.1110     2.3330     0.5820 c5         1 C7U       0.146600
      5 OBA         -6.7720     2.4980     1.8520 os         1 C7U      -0.423000
      6 CBQ         -6.9360     1.1830     2.4150 c5         1 C7U       0.374300
      7 OBB         -5.7070     0.8230     3.0720 os         1 C7U      -0.458000
      8 CAT         -5.5310    -0.5950     2.8890 c5         1 C7U       0.138600
      9 CBO         -5.8850    -0.8100     1.3880 c5         1 C7U       0.162300
     10 OBC         -4.7370    -0.4310     0.5730 os         1 C7U      -0.462100
     11 CBE         -3.7220    -1.3460     0.5460 c          1 C7U       0.642100
     12 OAD         -3.7020    -2.4250     1.1190 o          1 C7U      -0.531000
     13 NAZ         -2.7270    -0.8600    -0.2510 ns         1 C7U      -0.477900
     14 CBN         -1.5070    -1.5880    -0.6250 c3         1 C7U       0.089700
     15 CAU         -1.6500    -2.1720    -2.0590 c3         1 C7U      -0.062100
     16 CBF         -2.9140    -3.0090    -2.2360 ca         1 C7U      -0.090300
     17 CAN         -4.0530    -2.4610    -2.8590 ca         1 C7U      -0.102500
     18 CAL         -5.2220    -3.2280    -3.0000 ca         1 C7U      -0.107500
     19 CAK         -5.2600    -4.5490    -2.5220 ca         1 C7U      -0.106000
     20 CAM         -4.1260    -5.1010    -1.9010 ca         1 C7U      -0.107500
     21 CAO         -2.9570    -4.3330    -1.7580 ca         1 C7U      -0.102500
     22 CBL         -0.2600    -0.6790    -0.4000 c3         1 C7U       0.134300
     23 OAG         -0.2780     0.4610    -1.2780 oh         1 C7U      -0.653000
     24 CAW          1.1100    -1.3940    -0.5640 c3         1 C7U       0.194800
     25 NBP          2.2730    -0.4640    -0.5540 n3         1 C7U      -0.780500
     26 CAV          2.4410     0.4050     0.6500 c3         1 C7U       0.227800
     27 CBK          2.8460    -0.2760     1.9950 c3         1 C7U      -0.081700
     28 CAC          3.6510     0.7060     2.8810 c3         1 C7U      -0.086100
     29 CAB          1.6390    -0.8330     2.7960 c3         1 C7U      -0.086100
     30 SBS          3.6840    -1.1530    -1.2290 sy         1 C7U       1.194600
     31 OAE          3.9760    -2.3730    -0.4700 o          1 C7U      -0.545500
     32 OAF          3.4530    -1.1660    -2.6770 o          1 C7U      -0.545500
     33 CBG          4.9560     0.0770    -0.9020 ca         1 C7U      -0.302500
     34 CAR          5.9170    -0.1480     0.1140 ca         1 C7U       0.019000
     35 CBJ          6.8700     0.8520     0.3380 ca         1 C7U      -0.018900
     36 OBD          7.8620     0.8390     1.2610 os         1 C7U      -0.309700
     37 CBH          8.4510     2.0630     1.0130 cc         1 C7U       0.790500
     38 NAY          9.5190     2.4400     1.7550 nu         1 C7U      -0.887400
     39 CAA         10.2910     3.6850     1.6120 c3         1 C7U       0.231100
     40 NAX          7.9320     2.8210     0.0460 nd         1 C7U      -0.666100
     41 CBI          6.9000     2.0120    -0.3820 ca         1 C7U       0.160400
     42 CAQ          5.9680     2.2600    -1.3960 ca         1 C7U      -0.099000
     43 CAP          4.9880     1.2790    -1.6580 ca         1 C7U      -0.004000
     44 HBR         -8.0430    -0.3030     1.1960 hc         1 C7U       0.096700
     45 HBM         -6.3190     0.6630    -0.8700 h1         1 C7U       0.097700
     46 HBQ         -7.7890     1.1330     3.1060 h2         1 C7U       0.091700
     47 HBO         -6.1870    -1.8430     1.1580 h1         1 C7U       0.090700
     48 HAS1        -5.0480     2.1110     0.7470 h1         1 C7U       0.072200
     49 HAS2        -6.1940     3.2530    -0.0120 h1         1 C7U       0.072200
     50 HAT1        -4.5040    -0.8850     3.1480 h1         1 C7U       0.067200
     51 HAT2        -6.2260    -1.1360     3.5470 h1         1 C7U       0.067200
     52 HAZ         -2.8820     0.0560    -0.6510 hn         1 C7U       0.326500
     53 HBN         -1.4040    -2.4410     0.0610 h1         1 C7U       0.091700
     54 HAU1        -1.6430    -1.3510    -2.7870 hc         1 C7U       0.055700
     55 HAU2        -0.7770    -2.7910    -2.2940 hc         1 C7U       0.055700
     56 HBL         -0.3120    -0.3330     0.6420 h1         1 C7U       0.093700
     57 HAN         -4.0360    -1.4370    -3.2270 ha         1 C7U       0.109000
     58 HAO         -2.0870    -4.7660    -1.2700 ha         1 C7U       0.109000
     59 HAL         -6.1000    -2.7990    -3.4800 ha         1 C7U       0.117000
     60 HAK         -6.1650    -5.1430    -2.6300 ha         1 C7U       0.115000
     61 HAM         -4.1540    -6.1230    -1.5280 ha         1 C7U       0.117000
     62 HAG          0.6770     0.6660    -1.4130 ho         1 C7U       0.444000
     63 HAW1         1.2180    -2.1740     0.2000 h1         1 C7U       0.072700
     64 HAW2         1.0880    -1.9220    -1.5260 h1         1 C7U       0.072700
     65 HAV1         3.1810     1.1830     0.4270 h1         1 C7U       0.046200
     66 HAV2         1.5190     0.9710     0.8320 h1         1 C7U       0.046200
     67 HBK          3.5130    -1.1160     1.7770 hc         1 C7U       0.078700
     68 HAC1         3.0370     1.5720     3.1620 hc         1 C7U       0.034700
     69 HAC2         3.9890     0.2120     3.8010 hc         1 C7U       0.034700
     70 HAC3         4.5390     1.0740     2.3540 hc         1 C7U       0.034700
     71 HAB1         1.9720    -1.2350     3.7600 hc         1 C7U       0.034700
     72 HAB2         0.9050    -0.0420     2.9950 hc         1 C7U       0.034700
     73 HAB3         1.1340    -1.6460     2.2660 hc         1 C7U       0.034700
     74 HAR          5.9220    -1.0580     0.7120 ha         1 C7U       0.147000
     75 HAP          4.2490     1.4570    -2.4380 ha         1 C7U       0.130000
     76 HAA1        10.7270     3.7560     0.6060 h1         1 C7U       0.049700
     77 HAA2         9.6470     4.5600     1.7740 h1         1 C7U       0.049700
     78 HAA3        11.1080     3.7190     2.3460 h1         1 C7U       0.049700
     79 HAQ          5.9990     3.1850    -1.9650 ha         1 C7U       0.136000
     80 HAY          9.8090     1.7450     2.4390 hn         1 C7U       0.515000
@<TRIPOS>BOND
     1     1     2 1   
     2     1     6 1   
     3     1     9 1   
     4     1    44 1   
     5     2     3 1   
     6     2     4 1   
     7     2    45 1   
     8     4     5 1   
     9     4    48 1   
    10     4    49 1   
    11     5     6 1   
    12     6     7 1   
    13     6    46 1   
    14     7     8 1   
    15     8     9 1   
    16     8    50 1   
    17     8    51 1   
    18     9    10 1   
    19     9    47 1   
    20    10    11 1   
    21    11    12 2   
    22    11    13 1   
    23    13    14 1   
    24    13    52 1   
    25    14    15 1   
    26    14    22 1   
    27    14    53 1   
    28    15    16 1   
    29    15    54 1   
    30    15    55 1   
    31    16    17 ar  
    32    16    21 ar  
    33    17    18 ar  
    34    17    57 1   
    35    18    19 ar  
    36    18    59 1   
    37    19    20 ar  
    38    19    60 1   
    39    20    21 ar  
    40    20    61 1   
    41    21    58 1   
    42    22    23 1   
    43    22    24 1   
    44    22    56 1   
    45    23    62 1   
    46    24    25 1   
    47    24    63 1   
    48    24    64 1   
    49    25    26 1   
    50    25    30 1   
    51    26    27 1   
    52    26    65 1   
    53    26    66 1   
    54    27    28 1   
    55    27    29 1   
    56    27    67 1   
    57    28    68 1   
    58    28    69 1   
    59    28    70 1   
    60    29    71 1   
    61    29    72 1   
    62    29    73 1   
    63    30    31 2   
    64    30    32 2   
    65    30    33 1   
    66    33    34 ar  
    67    33    43 ar  
    68    34    35 ar  
    69    34    74 1   
    70    35    36 1   
    71    35    41 ar  
    72    36    37 1   
    73    37    38 1   
    74    37    40 2   
    75    38    39 1   
    76    38    80 1   
    77    39    76 1   
    78    39    77 1   
    79    39    78 1   
    80    40    41 1   
    81    41    42 ar  
    82    42    43 ar  
    83    42    79 1   
    84    43    75 1   
@<TRIPOS>SUBSTRUCTURE
     1 C7U         1 TEMP              0 ****  ****    0 ROOT
