@<TRIPOS>MOLECULE
C7U
   80    84     1     0     0
SMALL
abcg2


@<TRIPOS>ATOM
      1 CBR         -5.8870     1.1900     0.6720 c5         1 C7U      -0.147700
      2 CBM         -5.3900     1.6960    -0.6770 c5         1 C7U       0.124300
      3 CL          -6.8010     1.9740    -1.7740 cl         1 C7U      -0.281000
      4 CAS         -4.7420     3.0210    -0.3200 c5         1 C7U       0.146600
      5 OBA         -5.5370     3.5360     0.7320 os         1 C7U      -0.423000
      6 CBQ         -5.9710     2.4820     1.5230 c5         1 C7U       0.374300
      7 OBB         -5.1060     2.2870     2.6150 os         1 C7U      -0.458000
      8 CAT         -4.9780     0.8970     2.8370 c5         1 C7U       0.138600
      9 CBO         -4.9300     0.2770     1.4510 c5         1 C7U       0.162300
     10 OBC         -3.6270     0.3620     0.8870 os         1 C7U      -0.462100
     11 CBE         -2.8330    -0.7170     0.9880 c          1 C7U       0.642100
     12 OAD         -3.0940    -1.6810     1.6720 o          1 C7U      -0.531000
     13 NAZ         -1.7160    -0.5480     0.2520 ns         1 C7U      -0.477900
     14 CBN         -0.8710    -1.6620    -0.1180 c3         1 C7U       0.089700
     15 CAU         -1.2710    -2.1990    -1.5050 c3         1 C7U      -0.062100
     16 CBF         -2.7350    -2.5320    -1.5720 ca         1 C7U      -0.090300
     17 CAN         -3.6540    -1.5940    -2.0360 ca         1 C7U      -0.102500
     18 CAL         -5.0170    -1.8630    -2.0280 ca         1 C7U      -0.107500
     19 CAK         -5.4790    -3.0860    -1.5610 ca         1 C7U      -0.106000
     20 CAM         -4.5700    -4.0350    -1.1110 ca         1 C7U      -0.107500
     21 CAO         -3.2110    -3.7580    -1.1160 ca         1 C7U      -0.102500
     22 CBL          0.5990    -1.2300    -0.0300 c3         1 C7U       0.134300
     23 OAG          0.8910    -0.1430    -0.8730 oh         1 C7U      -0.653000
     24 CAW          1.5340    -2.4140    -0.2510 c3         1 C7U       0.194800
     25 NBP          2.9170    -2.1550     0.1240 n3         1 C7U      -0.780500
     26 CAV          3.2460    -2.0670     1.5450 c3         1 C7U       0.227800
     27 CBK          3.8320    -3.3360     2.1660 c3         1 C7U      -0.081700
     28 CAC          4.0510    -3.0880     3.6550 c3         1 C7U      -0.086100
     29 CAB          2.9500    -4.5560     1.9370 c3         1 C7U      -0.086100
     30 SBS          4.0630    -1.7620    -0.9800 sy         1 C7U       1.194600
     31 OAE          5.3160    -2.3550    -0.5320 o          1 C7U      -0.545500
     32 OAF          3.5360    -2.1120    -2.2920 o          1 C7U      -0.545500
     33 CBG          4.3160    -0.0110    -0.9440 ca         1 C7U      -0.302500
     34 CAR          5.1860     0.5210     0.0150 ca         1 C7U       0.019000
     35 CBJ          5.3180     1.8830    -0.0130 ca         1 C7U      -0.018900
     36 OBD          6.0850     2.6750     0.7890 os         1 C7U      -0.309700
     37 CBH          5.8700     3.9290     0.3270 cc         1 C7U       0.790500
     38 NAY          6.5130     4.9150     0.9320 nu         1 C7U      -0.887400
     39 CAA          6.3120     6.2940     0.5500 c3         1 C7U       0.231100
     40 NAX          5.0520     4.0230    -0.6820 nd         1 C7U      -0.666100
     41 CBI          4.6810     2.7240    -0.9280 ca         1 C7U       0.160400
     42 CAQ          3.8450     2.1700    -1.8890 ca         1 C7U      -0.099000
     43 CAP          3.6700     0.7940    -1.8810 ca         1 C7U      -0.004000
     44 HBR         -6.8510     0.6920     0.5920 hc         1 C7U       0.096700
     45 HBM         -4.7240     1.0210    -1.2050 h1         1 C7U       0.097700
     46 HBQ         -6.9810     2.7180     1.8750 h2         1 C7U       0.091700
     47 HBO         -5.2720    -0.7570     1.4500 h1         1 C7U       0.090700
     48 HAS1        -3.7090     2.8480    -0.0010 h1         1 C7U       0.072200
     49 HAS2        -4.7270     3.7380    -1.1390 h1         1 C7U       0.072200
     50 HAT1        -4.0820     0.7110     3.4300 h1         1 C7U       0.067200
     51 HAT2        -5.8390     0.4960     3.3850 h1         1 C7U       0.067200
     52 HAZ         -1.6690     0.2690    -0.3400 hn         1 C7U       0.326500
     53 HBN         -1.0240    -2.4480     0.6240 h1         1 C7U       0.091700
     54 HAU1        -1.0430    -1.4500    -2.2690 hc         1 C7U       0.055700
     55 HAU2        -0.6770    -3.0860    -1.7400 hc         1 C7U       0.055700
     56 HBL          0.7490    -0.8570     0.9880 h1         1 C7U       0.093700
     57 HAN         -3.2980    -0.6390    -2.4080 ha         1 C7U       0.109000
     58 HAO         -2.5110    -4.5030    -0.7560 ha         1 C7U       0.109000
     59 HAL         -5.7170    -1.1190    -2.3880 ha         1 C7U       0.117000
     60 HAK         -6.5400    -3.3000    -1.5530 ha         1 C7U       0.115000
     61 HAM         -4.9220    -4.9950    -0.7530 ha         1 C7U       0.117000
     62 HAG          0.8860    -0.4390    -1.7900 ho         1 C7U       0.444000
     63 HAW1         1.1880    -3.2560     0.3530 h1         1 C7U       0.072700
     64 HAW2         1.5000    -2.7590    -1.2840 h1         1 C7U       0.072700
     65 HAV1         3.9200    -1.2250     1.7270 h1         1 C7U       0.046200
     66 HAV2         2.3230    -1.8060     2.0700 h1         1 C7U       0.046200
     67 HBK          4.8030    -3.5260     1.7040 hc         1 C7U       0.078700
     68 HAC1         3.1070    -2.8790     4.1630 hc         1 C7U       0.034700
     69 HAC2         4.4970    -3.9600     4.1340 hc         1 C7U       0.034700
     70 HAC3         4.7170    -2.2400     3.8280 hc         1 C7U       0.034700
     71 HAB1         3.3760    -5.4330     2.4270 hc         1 C7U       0.034700
     72 HAB2         1.9470    -4.4070     2.3450 hc         1 C7U       0.034700
     73 HAB3         2.8530    -4.7950     0.8770 hc         1 C7U       0.034700
     74 HAR          5.7310    -0.0940     0.7170 ha         1 C7U       0.147000
     75 HAP          3.0400     0.3450    -2.6340 ha         1 C7U       0.130000
     76 HAA1         6.5080     6.4360    -0.5120 h1         1 C7U       0.049700
     77 HAA2         5.2970     6.6320     0.7640 h1         1 C7U       0.049700
     78 HAA3         7.0080     6.9070     1.1120 h1         1 C7U       0.049700
     79 HAQ          3.3500     2.7860    -2.6270 ha         1 C7U       0.136000
     80 HAY          7.0540     4.7090     1.7560 hn         1 C7U       0.515000
@<TRIPOS>BOND
     1     1     2 1   
     2     1     6 1   
     3     1     9 1   
     4     1    44 1   
     5     2     3 1   
     6     2     4 1   
     7     2    45 1   
     8     4     5 1   
     9     4    48 1   
    10     4    49 1   
    11     5     6 1   
    12     6     7 1   
    13     6    46 1   
    14     7     8 1   
    15     8     9 1   
    16     8    50 1   
    17     8    51 1   
    18     9    10 1   
    19     9    47 1   
    20    10    11 1   
    21    11    12 2   
    22    11    13 1   
    23    13    14 1   
    24    13    52 1   
    25    14    15 1   
    26    14    22 1   
    27    14    53 1   
    28    15    16 1   
    29    15    54 1   
    30    15    55 1   
    31    16    17 ar  
    32    16    21 ar  
    33    17    18 ar  
    34    17    57 1   
    35    18    19 ar  
    36    18    59 1   
    37    19    20 ar  
    38    19    60 1   
    39    20    21 ar  
    40    20    61 1   
    41    21    58 1   
    42    22    23 1   
    43    22    24 1   
    44    22    56 1   
    45    23    62 1   
    46    24    25 1   
    47    24    63 1   
    48    24    64 1   
    49    25    26 1   
    50    25    30 1   
    51    26    27 1   
    52    26    65 1   
    53    26    66 1   
    54    27    28 1   
    55    27    29 1   
    56    27    67 1   
    57    28    68 1   
    58    28    69 1   
    59    28    70 1   
    60    29    71 1   
    61    29    72 1   
    62    29    73 1   
    63    30    31 2   
    64    30    32 2   
    65    30    33 1   
    66    33    34 ar  
    67    33    43 ar  
    68    34    35 ar  
    69    34    74 1   
    70    35    36 1   
    71    35    41 ar  
    72    36    37 1   
    73    37    38 1   
    74    37    40 2   
    75    38    39 1   
    76    38    80 1   
    77    39    76 1   
    78    39    77 1   
    79    39    78 1   
    80    40    41 1   
    81    41    42 ar  
    82    42    43 ar  
    83    42    79 1   
    84    43    75 1   
@<TRIPOS>SUBSTRUCTURE
     1 C7U         1 TEMP              0 ****  ****    0 ROOT
