@<TRIPOS>MOLECULE
C7V
   44    47     1     0     0
SMALL
No Charge or Current Charge


@<TRIPOS>ATOM
      1 C4           3.8310    -1.0300    -1.6610 ca         1 C7V      -0.096000
      2 C3           5.0010    -0.6770    -0.9660 ca         1 C7V      -0.063500
      3 C2           4.9570     0.2740     0.0760 ca         1 C7V      -0.188300
      4 O2          -3.3360     1.5760    -1.5780 o          1 C7V      -0.531100
      5 C1           6.2340     0.6670     0.8290 c3         1 C7V       0.356300
      6 C01         -6.0130     3.1100    -1.4130 c3         1 C7V      -0.020800
      7 N1           0.1310    -0.9800    -1.2470 na         1 C7V       0.071600
      8 N2          -0.9970    -0.1590    -1.3470 nc         1 C7V      -0.522100
      9 O02         -5.5880     0.3050     0.9860 os         1 C7V      -0.080700
     10 N4          -6.9020     0.7660     1.3450 nc         1 C7V      -0.336300
     11 C5           2.5970    -0.4400    -1.3300 ca         1 C7V      -0.094300
     12 C6           1.3320    -0.8360    -2.0930 c3         1 C7V       0.141900
     13 C7          -1.8250    -0.6260    -0.4040 cd         1 C7V       0.429500
     14 C8          -3.7750     0.8900    -0.6630 c          1 C7V       0.539600
     15 C9          -5.1150     1.0890    -0.0420 cc         1 C7V       0.089500
     16 C10         -6.0590     2.0290    -0.3610 cd         1 C7V      -0.120300
     17 C11         -7.1280     1.7760     0.5240 cd         1 C7V       0.246900
     18 C13         -1.2470    -1.7430     0.3070 ca         1 C7V      -0.252900
     19 C14         -1.7200    -2.5460     1.3570 ca         1 C7V      -0.034000
     20 C15         -0.8710    -3.5730     1.8230 ca         1 C7V      -0.148000
     21 C16          0.4060    -3.7710     1.2410 ca         1 C7V      -0.066000
     22 C17          0.8450    -2.9420     0.1870 ca         1 C7V      -0.132000
     23 C18         -0.0230    -1.9310    -0.2530 ca         1 C7V      -0.012200
     24 C19          2.5530     0.5210    -0.3010 ca         1 C7V      -0.096000
     25 C20          3.7210     0.8760     0.3960 ca         1 C7V      -0.063500
     26 F1           5.9850     1.0390     2.1050 f          1 C7V      -0.113333
     27 F2           7.1270    -0.3470     0.8910 f          1 C7V      -0.113333
     28 F3           6.8570     1.7060     0.2290 f          1 C7V      -0.113333
     29 H41          3.8890    -1.7670    -2.4600 ha         1 C7V       0.129500
     30 H31          5.9430    -1.1460    -1.2450 ha         1 C7V       0.132000
     31 H012        -5.8910     2.6810    -2.4150 hc         1 C7V       0.056700
     32 H011        -6.9360     3.7020    -1.4160 hc         1 C7V       0.056700
     33 H013        -5.1780     3.7980    -1.2350 hc         1 C7V       0.056700
     34 H32         -3.5700    -0.6270     0.6500 hn         1 C7V       0.344500
     35 H61          1.4950    -1.7890    -2.6100 h1         1 C7V       0.076200
     36 H62          1.1280    -0.0790    -2.8590 h1         1 C7V       0.076200
     37 H111        -8.0700     2.3060     0.5920 h4         1 C7V       0.051100
     38 H141        -2.7010    -2.3890     1.8010 ha         1 C7V       0.117000
     39 H151        -1.2000    -4.2170     2.6350 ha         1 C7V       0.118000
     40 H161         1.0520    -4.5650     1.6100 ha         1 C7V       0.115000
     41 H171         1.8240    -3.0850    -0.2640 ha         1 C7V       0.121000
     42 H191         1.6120     1.0000    -0.0370 ha         1 C7V       0.129500
     43 H201         3.6590     1.6240     1.1830 ha         1 C7V       0.132000
     44 N3          -3.0760    -0.1560    -0.0940 ns         1 C7V      -0.387400
@<TRIPOS>BOND
     1     1     2 ar  
     2     1    11 ar  
     3     1    29 1   
     4     2     3 ar  
     5     2    30 1   
     6     3     5 1   
     7     3    25 ar  
     8     4    14 2   
     9     5    26 1   
    10     5    27 1   
    11     5    28 1   
    12     6    16 1   
    13     6    31 1   
    14     6    32 1   
    15     6    33 1   
    16     7     8 1   
    17     7    12 1   
    18     7    23 1   
    19     8    13 2   
    20     9    10 1   
    21     9    15 1   
    22    10    17 2   
    23    11    12 1   
    24    11    24 ar  
    25    12    35 1   
    26    12    36 1   
    27    13    18 1   
    28    13    44 1   
    29    14    15 1   
    30    14    44 1   
    31    15    16 2   
    32    16    17 1   
    33    17    37 1   
    34    18    19 ar  
    35    18    23 ar  
    36    19    20 ar  
    37    19    38 1   
    38    20    21 ar  
    39    20    39 1   
    40    21    22 ar  
    41    21    40 1   
    42    22    23 ar  
    43    22    41 1   
    44    24    25 ar  
    45    24    42 1   
    46    25    43 1   
    47    34    44 1   
@<TRIPOS>SUBSTRUCTURE
     1 C7V         1 TEMP              0 ****  ****    0 ROOT
