@<TRIPOS>MOLECULE
C7V
   44    47     1     0     0
SMALL
abcg2


@<TRIPOS>ATOM
      1 C4           3.5280    -1.1360    -0.9970 ca         1 C7V      -0.096000
      2 C3           4.4720    -0.4410    -0.2560 ca         1 C7V      -0.063500
      3 C2           4.2270     0.8760     0.1110 ca         1 C7V      -0.188300
      4 O2          -2.7040     1.4800    -1.2930 o          1 C7V      -0.531100
      5 C1           5.2660     1.6450     0.8630 c3         1 C7V       0.356300
      6 C01         -4.9660     3.5660    -0.9940 c3         1 C7V      -0.020800
      7 N1           0.1240    -1.5680    -1.3720 na         1 C7V       0.071600
      8 N2          -0.8740    -0.6670    -1.3260 nc         1 C7V      -0.522100
      9 O02         -5.2520     0.4470     0.9190 os         1 C7V      -0.080700
     10 N4          -6.3930     1.0620     1.3090 nc         1 C7V      -0.336300
     11 C5           2.3380    -0.5300    -1.3790 ca         1 C7V      -0.094300
     12 C6           1.3000    -1.2950    -2.1600 c3         1 C7V       0.141900
     13 C7          -1.7050    -1.0760    -0.4070 cd         1 C7V       0.429500
     14 C8          -3.3030     0.7790    -0.5030 c          1 C7V       0.539600
     15 C9          -4.5900     1.2330     0.0600 cc         1 C7V       0.089500
     16 C10         -5.2770     2.3880    -0.1410 cd         1 C7V      -0.120300
     17 C11         -6.4140     2.2040     0.6890 cd         1 C7V       0.246900
     18 C13         -1.2530    -2.2840     0.2010 ca         1 C7V      -0.252900
     19 C14         -1.7240    -3.1460     1.1980 ca         1 C7V      -0.034000
     20 C15         -0.9600    -4.2470     1.5140 ca         1 C7V      -0.148000
     21 C16          0.2610    -4.4960     0.8560 ca         1 C7V      -0.066000
     22 C17          0.7410    -3.6640    -0.1310 ca         1 C7V      -0.132000
     23 C18         -0.0420    -2.5520    -0.4560 ca         1 C7V      -0.012200
     24 C19          2.1040     0.7920    -1.0100 ca         1 C7V      -0.096000
     25 C20          3.0400     1.4940    -0.2710 ca         1 C7V      -0.063500
     26 F1           4.7390     2.6250     1.6050 f          1 C7V      -0.113333
     27 F2           5.9760     0.8660     1.6880 f          1 C7V      -0.113333
     28 F3           6.1480     2.2240     0.0320 f          1 C7V      -0.113333
     29 H41          3.7270    -2.1620    -1.2820 ha         1 C7V       0.129500
     30 H31          5.3900    -0.9390     0.0270 ha         1 C7V       0.132000
     31 H012        -4.9230     3.2910    -2.0470 hc         1 C7V       0.056700
     32 H011        -5.7310     4.3300    -0.8750 hc         1 C7V       0.056700
     33 H013        -4.0030     4.0040    -0.7330 hc         1 C7V       0.056700
     34 H32         -3.4600    -0.9270     0.6000 hn         1 C7V       0.344500
     35 H61          1.7080    -2.2420    -2.5140 h1         1 C7V       0.076200
     36 H62          0.9820    -0.7340    -3.0390 h1         1 C7V       0.076200
     37 H111        -7.2380     2.8850     0.8430 h4         1 C7V       0.051100
     38 H141        -2.6600    -2.9610     1.7110 ha         1 C7V       0.117000
     39 H151        -1.2960    -4.9320     2.2810 ha         1 C7V       0.118000
     40 H161         0.8380    -5.3670     1.1370 ha         1 C7V       0.115000
     41 H171         1.6820    -3.8720    -0.6230 ha         1 C7V       0.121000
     42 H191         1.1810     1.2780    -1.3010 ha         1 C7V       0.129500
     43 H201         2.8350     2.5200     0.0010 ha         1 C7V       0.132000
     44 N3          -2.8820    -0.4340    -0.0640 ns         1 C7V      -0.387400
@<TRIPOS>BOND
     1     1     2 ar  
     2     1    11 ar  
     3     1    29 1   
     4     2     3 ar  
     5     2    30 1   
     6     3     5 1   
     7     3    25 ar  
     8     4    14 2   
     9     5    26 1   
    10     5    27 1   
    11     5    28 1   
    12     6    16 1   
    13     6    31 1   
    14     6    32 1   
    15     6    33 1   
    16     7     8 1   
    17     7    12 1   
    18     7    23 1   
    19     8    13 2   
    20     9    10 1   
    21     9    15 1   
    22    10    17 2   
    23    11    12 1   
    24    11    24 ar  
    25    12    35 1   
    26    12    36 1   
    27    13    18 1   
    28    13    44 1   
    29    14    15 1   
    30    14    44 1   
    31    15    16 2   
    32    16    17 1   
    33    17    37 1   
    34    18    19 ar  
    35    18    23 ar  
    36    19    20 ar  
    37    19    38 1   
    38    20    21 ar  
    39    20    39 1   
    40    21    22 ar  
    41    21    40 1   
    42    22    23 ar  
    43    22    41 1   
    44    24    25 ar  
    45    24    42 1   
    46    25    43 1   
    47    34    44 1   
@<TRIPOS>SUBSTRUCTURE
     1 C7V         1 TEMP              0 ****  ****    0 ROOT
