@<TRIPOS>MOLECULE
C7W
   90    94     1     0     0
SMALL
No Charge or Current Charge


@<TRIPOS>ATOM
      1 CAA         11.9670     1.3860     1.8610 c3         1 C7W       0.232100
      2 FAA         -4.9690     5.0460     0.3800 f          1 C7W      -0.115667
      3 FAB         -6.8720     5.1500     1.4580 f          1 C7W      -0.115667
      4 CAC          4.9360    -2.8320    -1.1230 c3         1 C7W      -0.087600
      5 FAC         -6.8310     5.3870    -0.7150 f          1 C7W      -0.115667
      6 CAD          3.9750    -3.9270     0.9680 c3         1 C7W      -0.087600
      7 OAE         -2.4490    -3.0840    -0.3740 o          1 C7W      -0.530000
      8 OAF          2.9190     1.1700     1.4820 o          1 C7W      -0.546000
      9 OAG          2.9530     2.0850    -0.9010 o          1 C7W      -0.546000
     10 OAH          0.2860     1.1260    -0.8280 oh         1 C7W      -0.660000
     11 CAK         -3.9160    -3.3130    -4.6030 ca         1 C7W      -0.107000
     12 CAL         -4.1660    -1.9710    -4.2700 ca         1 C7W      -0.105500
     13 CAM         -2.6380    -3.8600    -4.3960 ca         1 C7W      -0.105500
     14 CAN         -3.1390    -1.1760    -3.7320 ca         1 C7W      -0.101000
     15 CAO         -1.6110    -3.0650    -3.8570 ca         1 C7W      -0.101000
     16 CAP          5.9550     1.3240    -1.1030 ca         1 C7W      -0.014000
     17 CAQ          7.3670     1.3710    -1.1200 ca         1 C7W      -0.101000
     18 CAR          5.9550     1.2110     1.3520 ca         1 C7W       0.025000
     19 CAS         -6.4640     3.1980     0.1440 c3         1 C7W      -0.162400
     20 CAT         -5.8620     2.3630     1.2880 c3         1 C7W       0.166600
     21 CAU         -6.4000     0.0360     3.2130 c5         1 C7W       0.124600
     22 CAV         -4.2540    -2.8680     2.1500 c5         1 C7W       0.130600
     23 CAW         -0.7440    -0.8650    -2.9220 c3         1 C7W      -0.059100
     24 CAX          3.4250    -1.4860     0.4680 c3         1 C7W       0.220800
     25 CAY          2.0050    -0.5620    -1.4020 c3         1 C7W       0.187800
     26 NAZ          9.4360     1.3720     0.3170 nc         1 C7W      -0.667100
     27 NBA         10.5930     1.3100     2.3800 nu         1 C7W      -0.888400
     28 NBB         -1.7940    -0.9030    -0.6730 ns         1 C7W      -0.486900
     29 CBC         -6.2800     4.7170     0.3220 c3         1 C7W       0.304000
     30 OBD         -6.1060     0.9820     0.9750 os         1 C7W      -0.451000
     31 OBE         -6.2640    -1.3050     3.7120 os         1 C7W      -0.459000
     32 OBF         -5.4960    -3.2780     2.7570 os         1 C7W      -0.431000
     33 OBG         -3.7340    -1.2910     0.3160 os         1 C7W      -0.460100
     34 OBH          8.2490     1.2410     2.2740 os         1 C7W      -0.306700
     35 CBI         -2.6440    -1.8840    -0.2540 c          1 C7W       0.649100
     36 CBJ         -1.8560    -1.7190    -3.5220 ca         1 C7W      -0.085300
     37 CBK          5.2490     1.2470     0.1270 ca         1 C7W      -0.293500
     38 CBL          9.4580     1.3090     1.6520 cd         1 C7W       0.791500
     39 CBM          8.0540     1.3380     0.1000 ca         1 C7W       0.158400
     40 CBN          7.3500     1.2610     1.2780 ca         1 C7W      -0.021900
     41 CBO          3.7390    -2.8790    -0.1420 c3         1 C7W      -0.069700
     42 CBP          0.6090    -0.2830    -0.7570 c3         1 C7W       0.130300
     43 CBQ         -0.5390    -1.1190    -1.4020 c3         1 C7W       0.099700
     44 CBR         -5.5850    -0.0080     1.8970 c5         1 C7W       0.145300
     45 CBS         -4.7360    -2.2140     0.8260 c5         1 C7W       0.162300
     46 NBT          3.1940    -0.3980    -0.5150 n3         1 C7W      -0.773500
     47 CBU         -6.4370    -2.2000     2.5980 c5         1 C7W       0.374300
     48 CBV         -5.9890    -1.4110     1.3240 c5         1 C7W      -0.144700
     49 HAA         12.6930     1.3700     2.6850 h1         1 C7W       0.050033
     50 HAAA        12.1770     0.5340     1.2000 h1         1 C7W       0.050033
     51 HAAB        12.1140     2.3130     1.2900 h1         1 C7W       0.050033
     52 HAC          5.1410    -3.8270    -1.5340 hc         1 C7W       0.036700
     53 HACA         4.7290    -2.1590    -1.9640 hc         1 C7W       0.036700
     54 HACB         5.8410    -2.4760    -0.6150 hc         1 C7W       0.036700
     55 HAD          4.8510    -3.6650     1.5740 hc         1 C7W       0.036700
     56 HADA         3.1050    -3.9910     1.6330 hc         1 C7W       0.036700
     57 HADB         4.1420    -4.9210     0.5350 hc         1 C7W       0.036700
     58 HOAH         1.1410     1.6150    -0.9030 ho         1 C7W       0.459000
     59 HAK         -4.7110    -3.9290    -5.0180 ha         1 C7W       0.112000
     60 HAL         -5.1550    -1.5470    -4.4270 ha         1 C7W       0.115000
     61 HAM         -2.4430    -4.8990    -4.6520 ha         1 C7W       0.115000
     62 HAN         -3.3440    -0.1400    -3.4720 ha         1 C7W       0.107500
     63 HAO         -0.6260    -3.4970    -3.6960 ha         1 C7W       0.107500
     64 HAP          5.4090     1.3390    -2.0460 ha         1 C7W       0.128000
     65 HAQ          7.9110     1.4280    -2.0590 ha         1 C7W       0.137000
     66 HAR          5.4500     1.1450     2.3140 ha         1 C7W       0.157000
     67 HAS         -6.0030     2.8930    -0.8020 hc         1 C7W       0.091700
     68 HASA        -7.5350     2.9770     0.0650 hc         1 C7W       0.091700
     69 HAT         -4.7830     2.5570     1.3640 h1         1 C7W       0.041200
     70 HATA        -6.3350     2.6410     2.2390 h1         1 C7W       0.041200
     71 HAU         -7.4630     0.2520     3.0350 h1         1 C7W       0.058200
     72 HAUA        -5.9990     0.7510     3.9430 h1         1 C7W       0.058200
     73 HAV         -3.7410    -2.1520     2.8070 h1         1 C7W       0.067200
     74 HAVA        -3.6090    -3.7420     1.9900 h1         1 C7W       0.067200
     75 HAW          0.1920    -1.0650    -3.4580 hc         1 C7W       0.056700
     76 HAWA        -0.9610     0.1980    -3.0840 hc         1 C7W       0.056700
     77 HAX          2.5600    -1.5780     1.1380 h1         1 C7W       0.052200
     78 HAXA         4.2830    -1.2280     1.1050 h1         1 C7W       0.052200
     79 HAY          1.9930    -1.5810    -1.8070 h1         1 C7W       0.071700
     80 HAYA         2.1100     0.0830    -2.2860 h1         1 C7W       0.071700
     81 HNBB        -2.0870     0.0470    -0.4910 hn         1 C7W       0.333500
     82 HBO          2.8610    -3.2180    -0.7040 hc         1 C7W       0.048700
     83 HBP          0.6670    -0.5970     0.2940 h1         1 C7W       0.088700
     84 HBQ         -0.2630    -2.1770    -1.2860 h1         1 C7W       0.087700
     85 HBR         -4.5110     0.1360     2.0770 h1         1 C7W       0.065700
     86 HBS         -5.0070    -2.9630     0.0680 h1         1 C7W       0.094700
     87 HBU         -7.4720    -2.5650     2.5360 h2         1 C7W       0.091700
     88 HBV         -6.7850    -1.3590     0.5750 hc         1 C7W       0.095700
     89 HBA         10.4360     1.2630     3.3840 hn         1 C7W       0.517000
     90 SBW          3.4580     1.1600     0.1190 sy         1 C7W       1.184600
@<TRIPOS>BOND
     1     1    27 1   
     2     1    49 1   
     3     1    50 1   
     4     1    51 1   
     5     2    29 1   
     6     3    29 1   
     7     4    41 1   
     8     4    52 1   
     9     4    53 1   
    10     4    54 1   
    11     5    29 1   
    12     6    41 1   
    13     6    55 1   
    14     6    56 1   
    15     6    57 1   
    16     7    35 2   
    17     8    90 2   
    18     9    90 2   
    19    10    42 1   
    20    10    58 1   
    21    11    12 ar  
    22    11    13 ar  
    23    11    59 1   
    24    12    14 ar  
    25    12    60 1   
    26    13    15 ar  
    27    13    61 1   
    28    14    36 ar  
    29    14    62 1   
    30    15    36 ar  
    31    15    63 1   
    32    16    17 ar  
    33    16    37 ar  
    34    16    64 1   
    35    17    39 ar  
    36    17    65 1   
    37    18    37 ar  
    38    18    40 ar  
    39    18    66 1   
    40    19    20 1   
    41    19    29 1   
    42    19    67 1   
    43    19    68 1   
    44    20    30 1   
    45    20    69 1   
    46    20    70 1   
    47    21    31 1   
    48    21    44 1   
    49    21    71 1   
    50    21    72 1   
    51    22    32 1   
    52    22    45 1   
    53    22    73 1   
    54    22    74 1   
    55    23    36 1   
    56    23    43 1   
    57    23    75 1   
    58    23    76 1   
    59    24    41 1   
    60    24    46 1   
    61    24    77 1   
    62    24    78 1   
    63    25    42 1   
    64    25    46 1   
    65    25    79 1   
    66    25    80 1   
    67    26    38 2   
    68    26    39 1   
    69    27    38 1   
    70    27    89 1   
    71    28    35 1   
    72    28    43 1   
    73    28    81 1   
    74    30    44 1   
    75    31    47 1   
    76    32    47 1   
    77    33    35 1   
    78    33    45 1   
    79    34    38 1   
    80    34    40 1   
    81    37    90 1   
    82    39    40 ar  
    83    41    82 1   
    84    42    43 1   
    85    42    83 1   
    86    43    84 1   
    87    44    48 1   
    88    44    85 1   
    89    45    48 1   
    90    45    86 1   
    91    46    90 1   
    92    47    48 1   
    93    47    87 1   
    94    48    88 1   
@<TRIPOS>SUBSTRUCTURE
     1 C7W         1 TEMP              0 ****  ****    0 ROOT
