@<TRIPOS>MOLECULE
C7W
   90    94     1     0     0
SMALL
abcg2


@<TRIPOS>ATOM
      1 CAA         12.1140     1.3210     0.0440 c3         1 C7W       0.232100
      2 FAA         -3.9370     4.0510    -0.0520 f          1 C7W      -0.115667
      3 FAB         -5.9260     4.6200     0.5370 f          1 C7W      -0.115667
      4 CAC          5.0260    -2.6510    -0.3520 c3         1 C7W      -0.087600
      5 FAC         -5.3100     4.8310    -1.5160 f          1 C7W      -0.115667
      6 CAD          4.5500    -3.6270     1.9150 c3         1 C7W      -0.087600
      7 OAE         -2.4850    -3.1840    -0.4690 o          1 C7W      -0.530000
      8 OAF          3.5370     1.5250     1.9110 o          1 C7W      -0.546000
      9 OAG          2.9230     1.8950    -0.4910 o          1 C7W      -0.546000
     10 OAH          0.4900     0.5720     0.9120 oh         1 C7W      -0.660000
     11 CAK         -4.2100    -1.5230    -3.9290 ca         1 C7W      -0.107000
     12 CAL         -4.3500    -0.6180    -2.8850 ca         1 C7W      -0.105500
     13 CAM         -2.9440    -1.9700    -4.2840 ca         1 C7W      -0.105500
     14 CAN         -3.2280    -0.1650    -2.2050 ca         1 C7W      -0.101000
     15 CAO         -1.8280    -1.5230    -3.5910 ca         1 C7W      -0.101000
     16 CAP          5.6920     0.8640    -1.2390 ca         1 C7W      -0.014000
     17 CAQ          7.0190     0.8390    -1.6370 ca         1 C7W      -0.101000
     18 CAR          6.3010     1.2870     1.0920 ca         1 C7W       0.025000
     19 CAS         -5.7070     2.6420    -0.7450 c3         1 C7W      -0.162400
     20 CAT         -5.6650     1.7220     0.4660 c3         1 C7W       0.166600
     21 CAU         -7.5980    -0.4550     1.6810 c5         1 C7W       0.124600
     22 CAV         -5.1410    -3.2870     2.1970 c5         1 C7W       0.130600
     23 CAW         -0.7540    -0.1920    -1.7480 c3         1 C7W      -0.059100
     24 CAX          3.6260    -1.4020     1.3400 c3         1 C7W       0.220800
     25 CAY          1.9940    -0.7720    -0.4630 c3         1 C7W       0.187800
     26 NAZ          9.3610     1.0750    -0.7420 nc         1 C7W      -0.667100
     27 NBA         10.9790     1.4170     0.9320 nu         1 C7W      -0.888400
     28 NBB         -1.6860    -1.1930     0.2930 ns         1 C7W      -0.486900
     29 CBC         -5.2220     4.0320    -0.4440 c3         1 C7W       0.304000
     30 OBD         -6.0250     0.4360     0.0190 os         1 C7W      -0.451000
     31 OBE         -7.7820    -1.7500     2.2110 os         1 C7W      -0.459000
     32 OBF         -6.5030    -3.6550     2.0970 os         1 C7W      -0.431000
     33 OBG         -3.7120    -1.8360     0.8670 os         1 C7W      -0.460100
     34 OBH          8.7400     1.4150     1.3900 os         1 C7W      -0.306700
     35 CBI         -2.6150    -2.1590     0.1610 c          1 C7W       0.649100
     36 CBJ         -1.9550    -0.6160    -2.5420 ca         1 C7W      -0.085300
     37 CBK          5.3470     1.0830     0.0960 ca         1 C7W      -0.293500
     38 CBL          9.7390     1.2980     0.4850 cd         1 C7W       0.791500
     39 CBM          7.9920     1.0370    -0.6630 ca         1 C7W       0.158400
     40 CBN          7.6010     1.2480     0.6600 ca         1 C7W      -0.021900
     41 CBO          4.0100    -2.7680     0.7760 c3         1 C7W      -0.069700
     42 CBP          0.6860    -0.6900     0.3200 c3         1 C7W       0.130300
     43 CBQ         -0.5100    -1.1200    -0.5430 c3         1 C7W       0.099700
     44 CBR         -6.2010    -0.4900     1.0560 c5         1 C7W       0.145300
     45 CBS         -4.8400    -2.6860     0.8270 c5         1 C7W       0.162300
     46 NBT          3.1750    -0.4570     0.3210 n3         1 C7W      -0.773500
     47 CBU         -7.1760    -2.6870     1.3510 c5         1 C7W       0.374300
     48 CBV         -6.1300    -1.9200     0.5210 c5         1 C7W      -0.144700
     49 HAA         13.0180     1.4030     0.6390 h1         1 C7W       0.050033
     50 HAAA        12.1290     0.3650    -0.4780 h1         1 C7W       0.050033
     51 HAAB        12.1120     2.1210    -0.6970 h1         1 C7W       0.050033
     52 HAC          5.3210    -3.6390    -0.7070 hc         1 C7W       0.036700
     53 HACA         4.6330    -2.0970    -1.2050 hc         1 C7W       0.036700
     54 HACB         5.9280    -2.1350    -0.0140 hc         1 C7W       0.036700
     55 HAD          5.4770    -3.2100     2.3160 hc         1 C7W       0.036700
     56 HADA         3.8360    -3.7040     2.7370 hc         1 C7W       0.036700
     57 HADB         4.7640    -4.6380     1.5680 hc         1 C7W       0.036700
     58 HOAH         0.6190     1.2630     0.2520 ho         1 C7W       0.459000
     59 HAK         -5.0830    -1.8740    -4.4650 ha         1 C7W       0.112000
     60 HAL         -5.3310    -0.2680    -2.5920 ha         1 C7W       0.115000
     61 HAM         -2.8270    -2.6710    -5.1000 ha         1 C7W       0.115000
     62 HAN         -3.3450     0.5510    -1.4010 ha         1 C7W       0.107500
     63 HAO         -0.8440    -1.8840    -3.8690 ha         1 C7W       0.107500
     64 HAP          4.9200     0.7110    -1.9800 ha         1 C7W       0.128000
     65 HAQ          7.2840     0.6730    -2.6720 ha         1 C7W       0.137000
     66 HAR          6.0370     1.4630     2.1260 ha         1 C7W       0.157000
     67 HAS         -5.0880     2.2350    -1.5480 hc         1 C7W       0.091700
     68 HASA        -6.7280     2.7080    -1.1270 hc         1 C7W       0.091700
     69 HAT         -4.6620     1.7000     0.9110 h1         1 C7W       0.041200
     70 HATA        -6.3530     2.0850     1.2370 h1         1 C7W       0.041200
     71 HAU         -8.3410    -0.2220     0.9060 h1         1 C7W       0.058200
     72 HAUA        -7.7050     0.2690     2.4890 h1         1 C7W       0.058200
     73 HAV         -4.9700    -2.5490     2.9920 h1         1 C7W       0.067200
     74 HAVA        -4.5530    -4.1760     2.4230 h1         1 C7W       0.067200
     75 HAW          0.1280    -0.1930    -2.3910 hc         1 C7W       0.056700
     76 HAWA        -0.8910     0.8360    -1.3980 hc         1 C7W       0.056700
     77 HAX          2.8700    -1.5180     2.1240 h1         1 C7W       0.052200
     78 HAXA         4.5110    -0.9860     1.8290 h1         1 C7W       0.052200
     79 HAY          2.1170    -1.7840    -0.8530 h1         1 C7W       0.071700
     80 HAYA         1.9760    -0.1220    -1.3380 h1         1 C7W       0.071700
     81 HNBB        -1.9360    -0.3630     0.8110 hn         1 C7W       0.333500
     82 HBO          3.1110    -3.2630     0.3930 hc         1 C7W       0.048700
     83 HBP          0.7330    -1.3970     1.1540 h1         1 C7W       0.088700
     84 HBQ         -0.3040    -2.1270    -0.9100 h1         1 C7W       0.087700
     85 HBR         -5.4510    -0.3300     1.8420 h1         1 C7W       0.065700
     86 HBS         -4.6990    -3.4780     0.0910 h1         1 C7W       0.094700
     87 HBU         -7.9380    -3.1990     0.7560 h2         1 C7W       0.091700
     88 HBV         -6.3680    -1.9270    -0.5430 hc         1 C7W       0.095700
     89 HBA         11.1300     1.5950     1.9110 hn         1 C7W       0.517000
     90 SBW          3.6320     1.1120     0.5170 sy         1 C7W       1.184600
@<TRIPOS>BOND
     1     1    27 1   
     2     1    49 1   
     3     1    50 1   
     4     1    51 1   
     5     2    29 1   
     6     3    29 1   
     7     4    41 1   
     8     4    52 1   
     9     4    53 1   
    10     4    54 1   
    11     5    29 1   
    12     6    41 1   
    13     6    55 1   
    14     6    56 1   
    15     6    57 1   
    16     7    35 2   
    17     8    90 2   
    18     9    90 2   
    19    10    42 1   
    20    10    58 1   
    21    11    12 ar  
    22    11    13 ar  
    23    11    59 1   
    24    12    14 ar  
    25    12    60 1   
    26    13    15 ar  
    27    13    61 1   
    28    14    36 ar  
    29    14    62 1   
    30    15    36 ar  
    31    15    63 1   
    32    16    17 ar  
    33    16    37 ar  
    34    16    64 1   
    35    17    39 ar  
    36    17    65 1   
    37    18    37 ar  
    38    18    40 ar  
    39    18    66 1   
    40    19    20 1   
    41    19    29 1   
    42    19    67 1   
    43    19    68 1   
    44    20    30 1   
    45    20    69 1   
    46    20    70 1   
    47    21    31 1   
    48    21    44 1   
    49    21    71 1   
    50    21    72 1   
    51    22    32 1   
    52    22    45 1   
    53    22    73 1   
    54    22    74 1   
    55    23    36 1   
    56    23    43 1   
    57    23    75 1   
    58    23    76 1   
    59    24    41 1   
    60    24    46 1   
    61    24    77 1   
    62    24    78 1   
    63    25    42 1   
    64    25    46 1   
    65    25    79 1   
    66    25    80 1   
    67    26    38 2   
    68    26    39 1   
    69    27    38 1   
    70    27    89 1   
    71    28    35 1   
    72    28    43 1   
    73    28    81 1   
    74    30    44 1   
    75    31    47 1   
    76    32    47 1   
    77    33    35 1   
    78    33    45 1   
    79    34    38 1   
    80    34    40 1   
    81    37    90 1   
    82    39    40 ar  
    83    41    82 1   
    84    42    43 1   
    85    42    83 1   
    86    43    84 1   
    87    44    48 1   
    88    44    85 1   
    89    45    48 1   
    90    45    86 1   
    91    46    90 1   
    92    47    48 1   
    93    47    87 1   
    94    48    88 1   
@<TRIPOS>SUBSTRUCTURE
     1 C7W         1 TEMP              0 ****  ****    0 ROOT
