@<TRIPOS>MOLECULE
C7X
   54    57     1     0     0
SMALL
abcg2


@<TRIPOS>ATOM
      1 C1          -0.0110     2.7520     0.8110 ca         1 C7X      -0.106000
      2 C2          -1.3390     3.1310     0.9390 ca         1 C7X      -0.130000
      3 C3          -2.3350     2.4040     0.3240 ca         1 C7X       0.146000
      4 C4          -2.0750     1.2770    -0.4480 ca         1 C7X      -0.068300
      5 C5          -0.7410     0.9190    -0.5660 ca         1 C7X      -0.115000
      6 C6          -3.1720     0.4660    -1.1510 c6         1 C7X       0.252500
      7 C7          -4.2200    -0.0030    -0.1050 c6         1 C7X      -0.041400
      8 O1           7.0610    -1.4990    -1.0480 os         1 C7X      -0.473300
      9 C8          -5.2230    -0.9800    -0.7160 c6         1 C7X       0.068600
     10 N3           3.7260    -0.3520    -0.7650 nb         1 C7X      -0.623000
     11 C9          -2.9740    -1.7640    -2.0550 c2         1 C7X       0.712100
     12 C10          2.7610     1.6250     0.2810 c          1 C7X       0.526600
     13 C11          3.9360     0.7810    -0.0930 ca         1 C7X       0.188500
     14 C12          4.7570    -1.0960    -1.0790 ca         1 C7X       0.287900
     15 C13          6.0500    -0.6950    -0.7040 ca         1 C7X       0.552300
     16 C14          5.2160     1.1640     0.2610 ca         1 C7X       0.399900
     17 C15         -3.8500     1.3700    -2.1980 c3         1 C7X      -0.093100
     18 F1           8.5860    -1.3070     0.6080 f          1 C7X      -0.257000
     19 C17          8.3640    -1.1160    -0.7320 c3         1 C7X       0.418600
     20 N4           6.2710     0.4150    -0.0450 nb         1 C7X      -0.721000
     21 O            2.9120     2.6590     0.9120 o          1 C7X      -0.587100
     22 C            0.2920     1.6260     0.0510 ca         1 C7X      -0.040000
     23 F           -3.6020     2.8320     0.5020 f          1 C7X      -0.189000
     24 N           -2.5240    -0.5940    -1.8830 n2         1 C7X      -0.721900
     25 S           -4.4500    -2.4730    -1.3750 ss         1 C7X      -0.394200
     26 C16         -3.6660    -0.5230     1.2000 ca         1 C7X      -0.076300
     27 C22         -2.5810    -1.3940     1.2910 ca         1 C7X      -0.094500
     28 C21         -2.1440    -1.8590     2.5240 ca         1 C7X      -0.111500
     29 C20         -2.7850    -1.4690     3.6920 ca         1 C7X      -0.104000
     30 C19         -3.8670    -0.6030     3.6170 ca         1 C7X      -0.111500
     31 C18         -4.2950    -0.1360     2.3820 ca         1 C7X      -0.094500
     32 H1           0.7520     3.3300     1.3030 ha         1 C7X       0.151000
     33 H2          -1.5980     4.0020     1.5270 ha         1 C7X       0.132000
     34 H3          -0.5050     0.0480    -1.1630 ha         1 C7X       0.136000
     35 H4          -4.8260     0.8700     0.1410 hc         1 C7X       0.080700
     36 H5          -1.3420    -2.4420    -3.0220 hn         1 C7X       0.474000
     37 H6          -2.5050    -3.6380    -2.7380 hn         1 C7X       0.474000
     38 H7           1.6500     0.2600    -0.6630 hn         1 C7X       0.179000
     39 H8          -5.9270    -1.3180     0.0430 h1         1 C7X       0.079200
     40 H9          -5.8020    -0.5030    -1.5060 h1         1 C7X       0.079200
     41 H10          4.5890    -2.0150    -1.6270 h4         1 C7X       0.049100
     42 H11          5.4040     2.0820     0.8020 h4         1 C7X       0.059100
     43 H12         -3.1030     1.7670    -2.8840 hc         1 C7X       0.048367
     44 H13         -4.5690     0.8030    -2.7900 hc         1 C7X       0.048367
     45 H14         -4.3770     2.2070    -1.7420 hc         1 C7X       0.048367
     46 H15          9.0150    -1.7810    -1.2940 h2         1 C7X       0.071200
     47 H16          8.5510    -0.0700    -0.9710 h2         1 C7X       0.071200
     48 H17         -2.0510    -1.7070     0.4030 ha         1 C7X       0.111500
     49 H18         -1.2960    -2.5300     2.5690 ha         1 C7X       0.112000
     50 H19         -2.4410    -1.8330     4.6520 ha         1 C7X       0.112000
     51 H20         -4.3750    -0.2860     4.5190 ha         1 C7X       0.112000
     52 H21         -5.1370     0.5460     2.3380 ha         1 C7X       0.111500
     53 N1          -2.3120    -2.6550    -2.8460 nv         1 C7X      -1.020200
     54 N2           1.5840     1.1250    -0.1400 ns         1 C7X      -0.123000
@<TRIPOS>BOND
     1     1     2 ar  
     2     1    22 ar  
     3     1    32 1   
     4     2     3 ar  
     5     2    33 1   
     6     3     4 ar  
     7     3    23 1   
     8     4     5 ar  
     9     4     6 1   
    10     5    22 ar  
    11     5    34 1   
    12     6     7 1   
    13     6    17 1   
    14     6    24 1   
    15     7     9 1   
    16     7    26 1   
    17     7    35 1   
    18     8    15 1   
    19     8    19 1   
    20     9    25 1   
    21     9    39 1   
    22     9    40 1   
    23    10    13 ar  
    24    10    14 ar  
    25    11    24 2   
    26    11    25 1   
    27    11    53 1   
    28    12    13 1   
    29    12    21 2   
    30    12    54 1   
    31    13    16 ar  
    32    14    15 ar  
    33    14    41 1   
    34    15    20 ar  
    35    16    20 ar  
    36    16    42 1   
    37    17    43 1   
    38    17    44 1   
    39    17    45 1   
    40    18    19 1   
    41    19    46 1   
    42    19    47 1   
    43    22    54 1   
    44    26    27 ar  
    45    26    31 ar  
    46    27    28 ar  
    47    27    48 1   
    48    28    29 ar  
    49    28    49 1   
    50    29    30 ar  
    51    29    50 1   
    52    30    31 ar  
    53    30    51 1   
    54    31    52 1   
    55    36    53 1   
    56    37    53 1   
    57    38    54 1   
@<TRIPOS>SUBSTRUCTURE
     1 C7X         1 TEMP              0 ****  ****    0 ROOT
