@<TRIPOS>MOLECULE
C7X
   54    57     1     0     0
SMALL
No Charge or Current Charge


@<TRIPOS>ATOM
      1 C1          -0.0910     2.8770     0.6850 ca         1 C7X      -0.106000
      2 C2          -1.4270     3.2910     0.7790 ca         1 C7X      -0.130000
      3 C3          -2.4530     2.5420     0.1850 ca         1 C7X       0.146000
      4 C4          -2.1680     1.3490    -0.5320 ca         1 C7X      -0.068300
      5 C5          -0.8060     0.9490    -0.6080 ca         1 C7X      -0.115000
      6 C6          -3.3060     0.4850    -1.1840 c6         1 C7X       0.252500
      7 C7          -4.2900    -0.0280    -0.0590 c6         1 C7X      -0.041400
      8 O1           7.2640    -1.4630    -1.0650 os         1 C7X      -0.473300
      9 C8          -5.3480    -1.0040    -0.6060 c6         1 C7X       0.068600
     10 N3           3.7570    -0.3590    -0.8270 nb         1 C7X      -0.623000
     11 C9          -3.2100    -1.7410    -2.2080 c2         1 C7X       0.712100
     12 C10          2.7900     1.6590     0.3050 c          1 C7X       0.526600
     13 C11          3.9650     0.7810    -0.0860 ca         1 C7X       0.188500
     14 C12          4.8800    -1.0780    -1.1250 ca         1 C7X       0.287900
     15 C13          6.1850    -0.6890    -0.6980 ca         1 C7X       0.552300
     16 C14          5.2700     1.1680     0.3260 ca         1 C7X       0.399900
     17 C15         -4.0760     1.3710    -2.2200 c3         1 C7X      -0.093100
     18 F1           8.5210    -1.7280     0.8380 f          1 C7X      -0.257000
     19 C17          8.5480    -1.2830    -0.4430 c3         1 C7X       0.418600
     20 N4           6.3890     0.4450     0.0240 nb         1 C7X      -0.721000
     21 O            2.9330     2.6860     0.9650 o          1 C7X      -0.587100
     22 C            0.2290     1.6950    -0.0110 ca         1 C7X      -0.040000
     23 F           -3.7160     2.9980     0.3310 f          1 C7X      -0.189000
     24 N           -2.7190    -0.5790    -2.0490 n2         1 C7X      -0.721900
     25 S           -4.5930    -2.4750    -1.3890 ss         1 C7X      -0.394200
     26 C16         -3.6190    -0.5750     1.2250 ca         1 C7X      -0.076300
     27 C22         -2.4660    -1.3910     1.1970 ca         1 C7X      -0.094500
     28 C21         -1.8900    -1.8580     2.3910 ca         1 C7X      -0.111500
     29 C20         -2.4590    -1.5210     3.6280 ca         1 C7X      -0.104000
     30 C19         -3.6080    -0.7170     3.6700 ca         1 C7X      -0.111500
     31 C18         -4.1840    -0.2480     2.4770 ca         1 C7X      -0.094500
     32 H1           0.6720     3.4850     1.1610 ha         1 C7X       0.151000
     33 H2          -1.6740     4.2010     1.3220 ha         1 C7X       0.132000
     34 H3          -0.5280     0.0380    -1.1300 ha         1 C7X       0.136000
     35 H4          -4.8710     0.8440     0.2630 hc         1 C7X       0.080700
     36 H5          -1.6350    -2.4220    -3.1460 hn         1 C7X       0.474000
     37 H6          -2.7710    -3.6070    -2.6740 hn         1 C7X       0.474000
     38 H7           1.6220     0.3370    -0.6760 hn         1 C7X       0.179000
     39 H8          -6.0160    -1.3400     0.1990 h1         1 C7X       0.079200
     40 H9          -5.9680    -0.5020    -1.3620 h1         1 C7X       0.079200
     41 H10          4.7390    -1.9830    -1.7140 h4         1 C7X       0.049100
     42 H11          5.4300     2.0740     0.9090 h4         1 C7X       0.059100
     43 H12         -3.3780     1.8740    -2.9000 hc         1 C7X       0.048367
     44 H13         -4.7560     0.7770    -2.8420 hc         1 C7X       0.048367
     45 H14         -4.6850     2.1470    -1.7470 hc         1 C7X       0.048367
     46 H15          9.3120    -1.8540    -0.9820 h2         1 C7X       0.071200
     47 H16          8.8540    -0.2310    -0.4500 h2         1 C7X       0.071200
     48 H17         -2.0040    -1.6700     0.2570 ha         1 C7X       0.111500
     49 H18         -1.0000    -2.4830     2.3550 ha         1 C7X       0.112000
     50 H19         -2.0120    -1.8830     4.5520 ha         1 C7X       0.112000
     51 H20         -4.0540    -0.4550     4.6270 ha         1 C7X       0.112000
     52 H21         -5.0750     0.3740     2.5300 ha         1 C7X       0.111500
     53 N1          -2.6040    -2.6580    -2.9790 nv         1 C7X      -1.020200
     54 N2           1.5570     1.1980    -0.1460 ns         1 C7X      -0.123000
@<TRIPOS>BOND
     1     1     2 ar  
     2     1    22 ar  
     3     1    32 1   
     4     2     3 ar  
     5     2    33 1   
     6     3     4 ar  
     7     3    23 1   
     8     4     5 ar  
     9     4     6 1   
    10     5    22 ar  
    11     5    34 1   
    12     6     7 1   
    13     6    17 1   
    14     6    24 1   
    15     7     9 1   
    16     7    26 1   
    17     7    35 1   
    18     8    15 1   
    19     8    19 1   
    20     9    25 1   
    21     9    39 1   
    22     9    40 1   
    23    10    13 ar  
    24    10    14 ar  
    25    11    24 2   
    26    11    25 1   
    27    11    53 1   
    28    12    13 1   
    29    12    21 2   
    30    12    54 1   
    31    13    16 ar  
    32    14    15 ar  
    33    14    41 1   
    34    15    20 ar  
    35    16    20 ar  
    36    16    42 1   
    37    17    43 1   
    38    17    44 1   
    39    17    45 1   
    40    18    19 1   
    41    19    46 1   
    42    19    47 1   
    43    22    54 1   
    44    26    27 ar  
    45    26    31 ar  
    46    27    28 ar  
    47    27    48 1   
    48    28    29 ar  
    49    28    49 1   
    50    29    30 ar  
    51    29    50 1   
    52    30    31 ar  
    53    30    51 1   
    54    31    52 1   
    55    36    53 1   
    56    37    53 1   
    57    38    54 1   
@<TRIPOS>SUBSTRUCTURE
     1 C7X         1 TEMP              0 ****  ****    0 ROOT
