@<TRIPOS>MOLECULE
C7Y
   47    51     1     0     0
SMALL
abcg2


@<TRIPOS>ATOM
      1 C4           3.2540     1.0750     0.0730 ca         1 C7Y       0.319300
      2 C5           4.5510     1.4780    -0.2910 ca         1 C7Y      -0.142000
      3 C6           5.5410     0.5400    -0.5040 ca         1 C7Y      -0.081000
      4 C7           5.1750    -0.7890    -0.3380 ca         1 C7Y      -0.102200
      5 C8           3.8480    -1.1150     0.0240 ca         1 C7Y       0.349800
      6 C10          3.7760    -2.5360     0.1100 cc         1 C7Y      -0.348800
      7 N12          5.8630    -1.9570    -0.4620 na         1 C7Y      -0.215700
      8 C15         -0.2460     2.2240     0.0700 ca         1 C7Y       0.425900
      9 C17         -1.3480     4.1690    -0.2120 ca         1 C7Y       0.172900
     10 C22         -3.8420     0.0430    -0.1010 cc         1 C7Y       0.510900
     11 C24         -3.6810    -2.1500     0.0310 cd         1 C7Y      -0.099300
     12 C28         -3.2620    -3.5540     0.1330 cx         1 C7Y      -0.066400
     13 C1           2.4320     2.7490     1.7350 c3         1 C7Y      -0.109100
     14 C2           2.2050     2.1310     0.3520 c3         1 C7Y       0.210200
     15 N9           2.9070    -0.1870     0.2270 nb         1 C7Y      -0.643000
     16 C11          5.0260    -3.0000    -0.1940 cd         1 C7Y      -0.155100
     17 N14          0.8980     1.5380     0.2290 nu         1 C7Y      -0.919100
     18 N16         -0.1790     3.5510    -0.0440 nb         1 C7Y      -0.289000
     19 C18         -2.5580     3.5260    -0.2670 ca         1 C7Y      -0.352000
     20 C19         -2.5090     2.1220    -0.1360 ca         1 C7Y       0.432900
     21 N20         -1.3640     1.4840     0.0310 nb         1 C7Y      -0.316000
     22 N21         -3.6640     1.4130    -0.1820 nu         1 C7Y      -0.892800
     23 C23         -2.9070    -1.0070     0.0050 cc         1 C7Y      -0.211000
     24 N25         -4.9560    -1.7400    -0.0530 na         1 C7Y      -0.006200
     25 N27         -5.0810    -0.4100    -0.1340 nd         1 C7Y      -0.587800
     26 C29         -4.0180    -4.5310     0.9950 cx         1 C7Y      -0.125900
     27 C30         -4.0730    -4.6580    -0.4900 cx         1 C7Y      -0.125900
     28 H1           4.7690     2.5320    -0.4110 ha         1 C7Y       0.124000
     29 H2           6.5430     0.8320    -0.7910 ha         1 C7Y       0.120000
     30 H3           2.9150    -3.1340     0.3630 ha         1 C7Y       0.217000
     31 H4           6.8340    -2.0460    -0.7110 hn         1 C7Y       0.353000
     32 H5          -1.3080     5.2490    -0.3080 h4         1 C7Y       0.013100
     33 H6          -2.1860    -3.6740     0.1040 hc         1 C7Y       0.099700
     34 H7           3.4180     3.2100     1.7980 hc         1 C7Y       0.046700
     35 H8           1.6870     3.5190     1.9300 hc         1 C7Y       0.046700
     36 H9           2.3590     1.9870     2.5120 hc         1 C7Y       0.046700
     37 H10          2.3040     2.9230    -0.3960 h1         1 C7Y       0.076700
     38 H11          5.3890    -4.0140    -0.2410 h4         1 C7Y       0.215000
     39 H12          0.8390     0.5370     0.3390 hn         1 C7Y       0.530000
     40 H13         -3.4850     4.0630    -0.4050 ha         1 C7Y       0.129000
     41 H14         -4.5140     1.9440    -0.3020 hn         1 C7Y       0.511000
     42 H15         -1.8360    -0.9430     0.0520 ha         1 C7Y       0.171000
     43 H16         -5.7880    -2.3070    -0.0680 hn         1 C7Y       0.369000
     44 H17         -3.4360    -5.2520     1.5540 hc         1 C7Y       0.074450
     45 H18         -4.8990    -4.1710     1.5130 hc         1 C7Y       0.074450
     46 H19         -4.9940    -4.3910    -0.9940 hc         1 C7Y       0.074450
     47 H20         -3.5310    -5.4670    -0.9620 hc         1 C7Y       0.074450
@<TRIPOS>BOND
     1     1     2 ar  
     2     1    14 1   
     3     1    15 ar  
     4     2     3 ar  
     5     2    28 1   
     6     3     4 ar  
     7     3    29 1   
     8     4     5 ar  
     9     4     7 1   
    10     5     6 1   
    11     5    15 ar  
    12     6    16 2   
    13     6    30 1   
    14     7    16 1   
    15     7    31 1   
    16     8    17 1   
    17     8    18 ar  
    18     8    21 ar  
    19     9    18 ar  
    20     9    19 ar  
    21     9    32 1   
    22    10    22 1   
    23    10    23 1   
    24    10    25 2   
    25    11    12 1   
    26    11    23 2   
    27    11    24 1   
    28    12    26 1   
    29    12    27 1   
    30    12    33 1   
    31    13    14 1   
    32    13    34 1   
    33    13    35 1   
    34    13    36 1   
    35    14    17 1   
    36    14    37 1   
    37    16    38 1   
    38    17    39 1   
    39    19    20 ar  
    40    19    40 1   
    41    20    21 ar  
    42    20    22 1   
    43    22    41 1   
    44    23    42 1   
    45    24    25 1   
    46    24    43 1   
    47    26    27 1   
    48    26    44 1   
    49    26    45 1   
    50    27    46 1   
    51    27    47 1   
@<TRIPOS>SUBSTRUCTURE
     1 C7Y         1 TEMP              0 ****  ****    0 ROOT
