@<TRIPOS>MOLECULE
C7Y
   47    51     1     0     0
SMALL
No Charge or Current Charge


@<TRIPOS>ATOM
      1 C4           3.3710     1.0750     0.1120 ca         1 C7Y       0.319300
      2 C5           4.6190     1.4610    -0.4490 ca         1 C7Y      -0.142000
      3 C6           5.6100     0.4880    -0.7010 ca         1 C7Y      -0.081000
      4 C7           5.2780    -0.8290    -0.3670 ca         1 C7Y      -0.102200
      5 C8           4.0530    -1.1140     0.1700 ca         1 C7Y       0.349800
      6 C10          4.0180    -2.5190     0.3970 cc         1 C7Y      -0.348800
      7 N12          6.0470    -1.9790    -0.5020 na         1 C7Y      -0.215700
      8 C15         -0.2830     2.2660     0.1020 ca         1 C7Y       0.425900
      9 C17         -1.4160     4.2100    -0.2950 ca         1 C7Y       0.172900
     10 C22         -4.0360     0.0520    -0.0140 cc         1 C7Y       0.510900
     11 C24         -3.8840    -2.1540     0.0290 cd         1 C7Y      -0.099300
     12 C28         -3.3700    -3.5480     0.0280 cx         1 C7Y      -0.066400
     13 C1           2.5000     2.8050     1.7720 c3         1 C7Y      -0.109100
     14 C2           2.2860     2.1460     0.3920 c3         1 C7Y       0.210200
     15 N9           3.0810    -0.2250     0.4270 nb         1 C7Y      -0.643000
     16 C11          5.2420    -3.0410    -0.0160 cd         1 C7Y      -0.155100
     17 N14          0.9090     1.5970     0.3110 nu         1 C7Y      -0.919100
     18 N16         -0.2370     3.5960    -0.0950 nb         1 C7Y      -0.289000
     19 C18         -2.6180     3.4890    -0.2980 ca         1 C7Y      -0.352000
     20 C19         -2.5460     2.1090    -0.0900 ca         1 C7Y       0.432900
     21 N20         -1.3750     1.4910     0.1150 nb         1 C7Y      -0.316000
     22 N21         -3.7160     1.3710    -0.0780 nu         1 C7Y      -0.892800
     23 C23         -3.1370    -1.0170    -0.0450 cc         1 C7Y      -0.211000
     24 N25         -5.2090    -1.6870     0.0970 na         1 C7Y      -0.006200
     25 N27         -5.2920    -0.2900     0.0650 nd         1 C7Y      -0.587800
     26 C29         -4.0450    -4.6210     0.8510 cx         1 C7Y      -0.125900
     27 C30         -4.1390    -4.6550    -0.6560 cx         1 C7Y      -0.125900
     28 H1           4.8110     2.5050    -0.6820 ha         1 C7Y       0.124000
     29 H2           6.5760     0.7500    -1.1290 ha         1 C7Y       0.120000
     30 H3           3.1900    -3.0830     0.8170 ha         1 C7Y       0.217000
     31 H4           6.9920    -2.0460    -0.8730 hn         1 C7Y       0.353000
     32 H5          -1.3960     5.2870    -0.4530 h4         1 C7Y       0.013100
     33 H6          -2.2850    -3.6020    -0.0390 hc         1 C7Y       0.099700
     34 H7           3.5050     3.2390     1.8350 hc         1 C7Y       0.046700
     35 H8           1.7740     3.6080     1.9430 hc         1 C7Y       0.046700
     36 H9           2.3960     2.0660     2.5760 hc         1 C7Y       0.046700
     37 H10          2.4060     2.9230    -0.3770 h1         1 C7Y       0.076700
     38 H11          5.5960    -4.0710    -0.0020 h4         1 C7Y       0.215000
     39 H12          0.8350     0.5820     0.4040 hn         1 C7Y       0.530000
     40 H13         -3.5670     3.9920    -0.4590 ha         1 C7Y       0.129000
     41 H14         -4.5560     1.9370    -0.1300 hn         1 C7Y       0.511000
     42 H15         -2.0610    -0.9510    -0.1220 ha         1 C7Y       0.171000
     43 H16         -6.0430    -2.2700     0.1600 hn         1 C7Y       0.369000
     44 H17         -3.4110    -5.3590     1.3360 hc         1 C7Y       0.074450
     45 H18         -4.9390    -4.3540     1.4100 hc         1 C7Y       0.074450
     46 H19         -5.0960    -4.4110    -1.1110 hc         1 C7Y       0.074450
     47 H20         -3.5680    -5.4160    -1.1830 hc         1 C7Y       0.074450
@<TRIPOS>BOND
     1     1     2 ar  
     2     1    14 1   
     3     1    15 ar  
     4     2     3 ar  
     5     2    28 1   
     6     3     4 ar  
     7     3    29 1   
     8     4     5 ar  
     9     4     7 1   
    10     5     6 1   
    11     5    15 ar  
    12     6    16 2   
    13     6    30 1   
    14     7    16 1   
    15     7    31 1   
    16     8    17 1   
    17     8    18 ar  
    18     8    21 ar  
    19     9    18 ar  
    20     9    19 ar  
    21     9    32 1   
    22    10    22 1   
    23    10    23 1   
    24    10    25 2   
    25    11    12 1   
    26    11    23 2   
    27    11    24 1   
    28    12    26 1   
    29    12    27 1   
    30    12    33 1   
    31    13    14 1   
    32    13    34 1   
    33    13    35 1   
    34    13    36 1   
    35    14    17 1   
    36    14    37 1   
    37    16    38 1   
    38    17    39 1   
    39    19    20 ar  
    40    19    40 1   
    41    20    21 ar  
    42    20    22 1   
    43    22    41 1   
    44    23    42 1   
    45    24    25 1   
    46    24    43 1   
    47    26    27 1   
    48    26    44 1   
    49    26    45 1   
    50    27    46 1   
    51    27    47 1   
@<TRIPOS>SUBSTRUCTURE
     1 C7Y         1 TEMP              0 ****  ****    0 ROOT
