@<TRIPOS>MOLECULE
C80
   78    80     1     0     0
SMALL
abcg2


@<TRIPOS>ATOM
      1 C1           5.8780     2.8180    -0.8040 ca         1 C80      -0.091500
      2 C2           6.3360     3.6670    -1.8000 ca         1 C80      -0.108500
      3 C3           7.6180     4.2000    -1.7290 ca         1 C80      -0.098000
      4 C4           8.4370     3.8790    -0.6570 ca         1 C80      -0.108500
      5 C5           7.9760     3.0250     0.3380 ca         1 C80      -0.091500
      6 C6           6.6960     2.4900     0.2740 ca         1 C80      -0.118300
      7 C7           6.1970     1.5750     1.3660 c3         1 C80       0.122900
      8 N8           5.6970     0.3190     0.8490 na         1 C80      -0.078700
      9 C16          4.3960    -0.0280     0.7450 cc         1 C80      -0.082100
     10 C9           6.4740    -0.6670     0.2820 ca         1 C80      -0.059200
     11 C13          6.1680    -2.8060    -0.8040 ca         1 C80      -0.057000
     12 C14          5.6140    -1.6780    -0.1900 ca         1 C80      -0.049800
     13 C15          4.2800    -1.2470     0.1190 cd         1 C80      -0.219400
     14 C10          7.8580    -0.7430     0.1620 ca         1 C80      -0.116000
     15 C11          8.3790    -1.8680    -0.4490 ca         1 C80      -0.097000
     16 C12          7.5420    -2.8870    -0.9260 ca         1 C80      -0.132000
     17 C17          3.0450    -1.9370    -0.2090 c          1 C80       0.643300
     18 O18          2.9860    -2.9620    -0.8530 o          1 C80      -0.498000
     19 O19          1.9740    -1.3080     0.2670 os         1 C80      -0.459100
     20 C20          0.6830    -1.7900    -0.1130 c3         1 C80       0.170600
     21 C21         -0.3810    -0.9170     0.5330 c3         1 C80      -0.066700
     22 C22         -0.2150     0.5520     0.1540 c3         1 C80      -0.085100
     23 C23         -1.7440    -1.4650     0.0990 c3         1 C80      -0.114400
     24 C24         -2.9520    -0.7810     0.7490 c3         1 C80       0.133500
     25 N25         -2.9610    -0.8440     2.2030 n8         1 C80      -0.998200
     26 C26         -4.2720    -1.3690     0.2170 c3         1 C80       0.171300
     27 O27         -4.2840    -1.4280    -1.1960 oh         1 C80      -0.659000
     28 C28         -5.4820    -0.6060     0.7500 c3         1 C80      -0.096400
     29 C29         -6.8280    -1.1290     0.2300 c3         1 C80      -0.133700
     30 C30         -7.1400    -2.5400     0.7150 c3         1 C80      -0.079100
     31 C31         -7.9180    -0.1690     0.6760 c          1 C80       0.597100
     32 O32         -8.3140    -0.1320     1.8350 o          1 C80      -0.602100
     33 N33         -8.3770     0.6520    -0.2830 ns         1 C80      -0.508900
     34 C34         -9.4180     1.6370    -0.0920 c3         1 C80       0.101000
     35 C35        -10.7940     1.1400    -0.5180 c3         1 C80      -0.101400
     36 C36        -11.8620     2.2190    -0.3940 c3         1 C80      -0.072400
     37 C37        -13.2350     1.7410    -0.8440 c3         1 C80      -0.088100
     38 H1           4.8750     2.4130    -0.8720 ha         1 C80       0.113500
     39 H2           5.6900     3.9170    -2.6320 ha         1 C80       0.116500
     40 H3           7.9760     4.8610    -2.5090 ha         1 C80       0.116000
     41 H4           9.4380     4.2860    -0.5940 ha         1 C80       0.116500
     42 H5           8.6240     2.7690     1.1690 ha         1 C80       0.113500
     43 H7C1         6.9920     1.3750     2.0870 h1         1 C80       0.065700
     44 H7C2         5.3830     2.0450     1.9190 h1         1 C80       0.065700
     45 H16          3.6260     0.6250     1.1260 h4         1 C80       0.222000
     46 H10          8.5080     0.0420     0.5270 ha         1 C80       0.116000
     47 H13          5.5370    -3.6000    -1.1780 ha         1 C80       0.137000
     48 H12          7.9840    -3.7540    -1.3980 ha         1 C80       0.113000
     49 H11          9.4510    -1.9630    -0.5610 ha         1 C80       0.111000
     50 H201         0.5860    -1.7580    -1.2030 h1         1 C80       0.050200
     51 H202         0.5610    -2.8290     0.2040 h1         1 C80       0.050200
     52 H21         -0.2810    -1.0210     1.6200 hc         1 C80       0.050700
     53 H221        -0.3420     0.6900    -0.9220 hc         1 C80       0.036367
     54 H222        -0.9530     1.1800     0.6550 hc         1 C80       0.036367
     55 H223         0.7670     0.9370     0.4280 hc         1 C80       0.036367
     56 H231        -1.8170    -1.3800    -0.9880 hc         1 C80       0.055200
     57 H232        -1.7910    -2.5370     0.3270 hc         1 C80       0.055200
     58 H24         -2.9450     0.2820     0.4780 h1         1 C80       0.054700
     59 H251        -2.8100    -1.8000     2.5070 hn         1 C80       0.399000
     60 H252        -2.1890    -0.3090     2.5800 hn         1 C80       0.399000
     61 H27         -4.2770    -0.5260    -1.5340 ho         1 C80       0.435000
     62 H281        -5.4700    -0.6380     1.8400 hc         1 C80       0.064200
     63 H282        -5.3720     0.4510     0.4720 hc         1 C80       0.064200
     64 H29         -6.7950    -1.1380    -0.8630 hc         1 C80       0.052700
     65 H301        -8.1090    -2.8800     0.3460 hc         1 C80       0.043033
     66 H302        -6.3930    -3.2480     0.3590 hc         1 C80       0.043033
     67 H303        -7.1570    -2.5900     1.8040 hc         1 C80       0.043033
     68 H33         -8.0320     0.5260    -1.2200 hn         1 C80       0.307500
     69 H341        -9.4290     1.9340     0.9570 h1         1 C80       0.054200
     70 H342        -9.1500     2.5250    -0.6690 h1         1 C80       0.054200
     71 H351       -10.7450     0.7930    -1.5550 hc         1 C80       0.045700
     72 H352       -11.0710     0.2720     0.0880 hc         1 C80       0.045700
     73 H361       -11.9150     2.5610     0.6440 hc         1 C80       0.037700
     74 H362       -11.5650     3.0910    -0.9850 hc         1 C80       0.037700
     75 H371       -13.2200     1.4270    -1.8890 hc         1 C80       0.032700
     76 H372       -13.5700     0.8880    -0.2500 hc         1 C80       0.032700
     77 H373       -13.9850     2.5270    -0.7450 hc         1 C80       0.032700
     78 H26         -4.3300    -2.4140     0.5460 h1         1 C80       0.074700
@<TRIPOS>BOND
     1     1     2 ar  
     2     1     6 ar  
     3     1    38 1   
     4     2     3 ar  
     5     2    39 1   
     6     3     4 ar  
     7     3    40 1   
     8     4     5 ar  
     9     4    41 1   
    10     5     6 ar  
    11     5    42 1   
    12     6     7 1   
    13     7     8 1   
    14     7    43 1   
    15     7    44 1   
    16     8     9 1   
    17     8    10 1   
    18     9    13 2   
    19     9    45 1   
    20    10    12 ar  
    21    10    14 ar  
    22    11    12 ar  
    23    11    16 ar  
    24    11    47 1   
    25    12    13 1   
    26    13    17 1   
    27    14    15 ar  
    28    14    46 1   
    29    15    16 ar  
    30    15    49 1   
    31    16    48 1   
    32    17    18 2   
    33    17    19 1   
    34    19    20 1   
    35    20    21 1   
    36    20    50 1   
    37    20    51 1   
    38    21    22 1   
    39    21    23 1   
    40    21    52 1   
    41    22    53 1   
    42    22    54 1   
    43    22    55 1   
    44    23    24 1   
    45    23    56 1   
    46    23    57 1   
    47    24    25 1   
    48    24    26 1   
    49    24    58 1   
    50    25    59 1   
    51    25    60 1   
    52    26    27 1   
    53    26    28 1   
    54    26    78 1   
    55    27    61 1   
    56    28    29 1   
    57    28    62 1   
    58    28    63 1   
    59    29    30 1   
    60    29    31 1   
    61    29    64 1   
    62    30    65 1   
    63    30    66 1   
    64    30    67 1   
    65    31    32 2   
    66    31    33 1   
    67    33    34 1   
    68    33    68 1   
    69    34    35 1   
    70    34    69 1   
    71    34    70 1   
    72    35    36 1   
    73    35    71 1   
    74    35    72 1   
    75    36    37 1   
    76    36    73 1   
    77    36    74 1   
    78    37    75 1   
    79    37    76 1   
    80    37    77 1   
@<TRIPOS>SUBSTRUCTURE
     1 C80         1 TEMP              0 ****  ****    0 ROOT
