@<TRIPOS>MOLECULE
C80
   78    80     1     0     0
SMALL
No Charge or Current Charge


@<TRIPOS>ATOM
      1 C1           6.6000     2.6160    -0.6920 ca         1 C80      -0.091500
      2 C2           7.2550     3.4920    -1.5750 ca         1 C80      -0.108500
      3 C3           8.4400     4.1340    -1.1800 ca         1 C80      -0.098000
      4 C4           8.9690     3.9000     0.1000 ca         1 C80      -0.108500
      5 C5           8.3150     3.0240     0.9840 ca         1 C80      -0.091500
      6 C6           7.1290     2.3710     0.5930 ca         1 C80      -0.118300
      7 C7           6.4320     1.4230     1.5690 c3         1 C80       0.122900
      8 N8           5.8240     0.2360     0.9390 na         1 C80      -0.078700
      9 C16          4.4550     0.0040     0.7080 cc         1 C80      -0.082100
     10 C9           6.5890    -0.8190     0.4530 ca         1 C80      -0.059200
     11 C13          6.2430    -2.9400    -0.6730 ca         1 C80      -0.057000
     12 C14          5.7550    -1.7580    -0.0970 ca         1 C80      -0.049800
     13 C15          4.4130    -1.2310     0.0680 cd         1 C80      -0.219400
     14 C10          7.9820    -0.9950     0.4620 ca         1 C80      -0.116000
     15 C11          8.5050    -2.1750    -0.1090 ca         1 C80      -0.097000
     16 C12          7.6400    -3.1430    -0.6730 ca         1 C80      -0.132000
     17 C17          3.1490    -1.8770    -0.3730 c          1 C80       0.643300
     18 O18          3.1050    -2.9610    -0.9390 o          1 C80      -0.498000
     19 O19          2.0300    -1.1380    -0.0850 os         1 C80      -0.459100
     20 C20          0.7480    -1.6630    -0.4760 c3         1 C80       0.170600
     21 C21         -0.3470    -0.6490    -0.0560 c3         1 C80      -0.066700
     22 C22         -0.1770     0.7090    -0.7870 c3         1 C80      -0.085100
     23 C23         -1.7650    -1.2650    -0.2710 c3         1 C80      -0.114400
     24 C24         -2.9780    -0.4130     0.2080 c3         1 C80       0.133500
     25 N25         -2.8310    -0.1250     1.6550 n8         1 C80      -0.998200
     26 C26         -4.3650    -1.0810    -0.1220 c3         1 C80       0.171300
     27 O27         -4.4730    -1.3300    -1.5350 oh         1 C80      -0.659000
     28 C28         -5.5860    -0.2230     0.3240 c3         1 C80      -0.096400
     29 C29         -6.9900    -0.8480     0.0570 c3         1 C80      -0.133700
     30 C30         -7.2230    -2.1730     0.8250 c3         1 C80      -0.079100
     31 C31         -8.1070     0.1680     0.3820 c          1 C80       0.597100
     32 O32         -8.2870     0.6190     1.5050 o          1 C80      -0.602100
     33 N33         -8.8900     0.5370    -0.6910 ns         1 C80      -0.508900
     34 C34        -10.0270     1.4570    -0.6200 c3         1 C80       0.101000
     35 C35        -11.2920     0.7720    -0.0640 c3         1 C80      -0.101400
     36 C36        -12.5100     1.7190    -0.0020 c3         1 C80      -0.072400
     37 C37        -13.7760     1.0390     0.5530 c3         1 C80      -0.088100
     38 H1           5.6810     2.1290    -1.0130 ha         1 C80       0.113500
     39 H2           6.8430     3.6740    -2.5650 ha         1 C80       0.116500
     40 H3           8.9470     4.8130    -1.8630 ha         1 C80       0.116000
     41 H4           9.8860     4.3980     0.4080 ha         1 C80       0.116500
     42 H5           8.7350     2.8520     1.9730 ha         1 C80       0.113500
     43 H7C1         7.1470     1.0800     2.3280 h1         1 C80       0.065700
     44 H7C2         5.6430     1.9760     2.0950 h1         1 C80       0.065700
     45 H16          3.6700     0.6960     0.9970 h4         1 C80       0.222000
     46 H10          8.6450    -0.2490     0.8930 ha         1 C80       0.116000
     47 H13          5.5760    -3.6800    -1.1080 ha         1 C80       0.137000
     48 H12          8.0540    -4.0480    -1.1120 ha         1 C80       0.113000
     49 H11          9.5800    -2.3400    -0.1170 ha         1 C80       0.111000
     50 H201         0.7050    -1.8220    -1.5620 h1         1 C80       0.050200
     51 H202         0.5650    -2.6260     0.0190 h1         1 C80       0.050200
     52 H21         -0.2100    -0.4690     1.0180 hc         1 C80       0.050700
     53 H221        -0.3380     0.5940    -1.8660 hc         1 C80       0.036367
     54 H222        -0.8870     1.4550    -0.4110 hc         1 C80       0.036367
     55 H223         0.8300     1.1160    -0.6350 hc         1 C80       0.036367
     56 H231        -1.8770    -1.4740    -1.3420 hc         1 C80       0.055200
     57 H232        -1.8080    -2.2400     0.2300 hc         1 C80       0.055200
     58 H24         -2.9560     0.5510    -0.3200 h1         1 C80       0.054700
     59 H251        -2.7170    -1.0090     2.1630 hn         1 C80       0.399000
     60 H252        -1.9380     0.3550     1.8070 hn         1 C80       0.399000
     61 H27         -4.4750    -0.4570    -1.9820 ho         1 C80       0.435000
     62 H281        -5.5030    -0.0150     1.3980 hc         1 C80       0.064200
     63 H282        -5.5310     0.7510    -0.1770 hc         1 C80       0.064200
     64 H29         -7.0610    -1.0790    -1.0120 hc         1 C80       0.052700
     65 H301        -8.2370    -2.5500     0.6390 hc         1 C80       0.043033
     66 H302        -6.5170    -2.9470     0.5030 hc         1 C80       0.043033
     67 H303        -7.1070    -2.0270     1.9060 hc         1 C80       0.043033
     68 H33         -8.6650     0.1160    -1.5850 hn         1 C80       0.307500
     69 H341        -9.7590     2.3130     0.0140 h1         1 C80       0.054200
     70 H342       -10.2320     1.8360    -1.6300 h1         1 C80       0.054200
     71 H351       -11.5380    -0.0920    -0.6930 hc         1 C80       0.045700
     72 H352       -11.0840     0.3880     0.9430 hc         1 C80       0.045700
     73 H361       -12.2660     2.5850     0.6260 hc         1 C80       0.037700
     74 H362       -12.7230     2.1030    -1.0080 hc         1 C80       0.037700
     75 H371       -14.0670     0.1880    -0.0750 hc         1 C80       0.032700
     76 H372       -13.6060     0.6740     1.5730 hc         1 C80       0.032700
     77 H373       -14.6120     1.7480     0.5770 hc         1 C80       0.032700
     78 H26         -4.4020    -2.0360     0.4210 h1         1 C80       0.074700
@<TRIPOS>BOND
     1     1     2 ar  
     2     1     6 ar  
     3     1    38 1   
     4     2     3 ar  
     5     2    39 1   
     6     3     4 ar  
     7     3    40 1   
     8     4     5 ar  
     9     4    41 1   
    10     5     6 ar  
    11     5    42 1   
    12     6     7 1   
    13     7     8 1   
    14     7    43 1   
    15     7    44 1   
    16     8     9 1   
    17     8    10 1   
    18     9    13 2   
    19     9    45 1   
    20    10    12 ar  
    21    10    14 ar  
    22    11    12 ar  
    23    11    16 ar  
    24    11    47 1   
    25    12    13 1   
    26    13    17 1   
    27    14    15 ar  
    28    14    46 1   
    29    15    16 ar  
    30    15    49 1   
    31    16    48 1   
    32    17    18 2   
    33    17    19 1   
    34    19    20 1   
    35    20    21 1   
    36    20    50 1   
    37    20    51 1   
    38    21    22 1   
    39    21    23 1   
    40    21    52 1   
    41    22    53 1   
    42    22    54 1   
    43    22    55 1   
    44    23    24 1   
    45    23    56 1   
    46    23    57 1   
    47    24    25 1   
    48    24    26 1   
    49    24    58 1   
    50    25    59 1   
    51    25    60 1   
    52    26    27 1   
    53    26    28 1   
    54    26    78 1   
    55    27    61 1   
    56    28    29 1   
    57    28    62 1   
    58    28    63 1   
    59    29    30 1   
    60    29    31 1   
    61    29    64 1   
    62    30    65 1   
    63    30    66 1   
    64    30    67 1   
    65    31    32 2   
    66    31    33 1   
    67    33    34 1   
    68    33    68 1   
    69    34    35 1   
    70    34    69 1   
    71    34    70 1   
    72    35    36 1   
    73    35    71 1   
    74    35    72 1   
    75    36    37 1   
    76    36    73 1   
    77    36    74 1   
    78    37    75 1   
    79    37    76 1   
    80    37    77 1   
@<TRIPOS>SUBSTRUCTURE
     1 C80         1 TEMP              0 ****  ****    0 ROOT
