@<TRIPOS>MOLECULE
C81
   57    60     1     0     0
SMALL
bcc


@<TRIPOS>ATOM
      1 C2           2.7610    -1.3030     0.5520 ca         1 C81       0.947900
      2 C12          5.0670     2.1300     0.0460 c          1 C81       0.855600
      3 C14          7.4030     0.4010    -1.4250 c3         1 C81       0.159600
      4 C15          0.4880    -2.1910     0.9010 c3         1 C81       0.203200
      5 C16         -0.8800    -1.7650     0.4230 ca         1 C81       0.414600
      6 C18         -2.3840    -0.0850     0.1300 ca         1 C81       0.434200
      7 C19         -3.3710    -0.9470    -0.3370 cp         1 C81      -0.177300
      8 C20         -3.0730    -2.3140    -0.4130 ca         1 C81      -0.009300
      9 C21         -1.8000    -2.7050    -0.0180 ca         1 C81      -0.242300
     10 C22         -4.6750    -0.3800    -0.7310 cp         1 C81       0.006000
     11 C23         -5.3910     0.4230     0.1560 ca         1 C81      -0.189300
     12 C24         -6.5900     0.9640    -0.2700 ca         1 C81       0.303600
     13 C26         -6.4260     0.0130    -2.3170 ca         1 C81       0.405200
     14 C27         -5.2150    -0.5830    -1.9950 ca         1 C81      -0.212300
     15 C28          0.4350    -2.5330     2.3930 c3         1 C81      -0.112100
     16 C30          8.8970     0.2870    -1.5990 c3         1 C81      -0.124100
     17 C10          7.3190     2.2700     0.3210 c5         1 C81       0.130400
     18 C31         -4.0580    -3.3390    -0.8820 c3         1 C81      -0.057800
     19 C32         -7.4200     1.8510     0.6190 c3         1 C81       0.631600
     20 C4           4.7880    -0.3130     0.3010 ca         1 C81       0.653200
     21 C5           5.4160    -1.5640     0.3940 ca         1 C81      -0.498600
     22 C6           4.5700    -2.6390     0.5680 ca         1 C81       0.500200
     23 C9           6.9950     0.8170    -0.0160 c5         1 C81       0.048700
     24 F29          6.8900     1.3540    -2.3090 f          1 C81      -0.236300
     25 F33         -6.9560     1.8970     1.8690 f          1 C81      -0.226633
     26 F34         -7.4460     3.1070     0.1560 f          1 C81      -0.226633
     27 F35         -8.6870     1.4300     0.6770 f          1 C81      -0.226633
     28 N1           3.2520    -2.5420     0.6500 nb         1 C81      -0.800000
     29 N17         -1.1730    -0.4730     0.4970 nb         1 C81      -0.676000
     30 N25         -7.1060     0.7740    -1.4740 nb         1 C81      -0.626000
     31 N3           3.4820    -0.1870     0.3820 nb         1 C81      -0.794000
     32 N7           5.5470     0.8350     0.1400 n          1 C81      -0.503300
     33 N8           1.4310    -1.1360     0.6150 nu         1 C81      -0.853900
     34 O11          6.1030     2.9710     0.0780 os         1 C81      -0.381900
     35 H1           6.9280    -0.5500    -1.6810 h1         1 C81       0.071700
     36 H2           0.7880    -3.0840     0.3490 h1         1 C81       0.082700
     37 H3          -2.5860     0.9800     0.1910 h4         1 C81       0.029100
     38 H4          -1.5220    -3.7520    -0.0500 ha         1 C81       0.146000
     39 H5          -5.0140     0.6000     1.1540 ha         1 C81       0.164000
     40 H6          -6.8560    -0.1290    -3.3010 h4         1 C81       0.031100
     41 H7          -4.7020    -1.1790    -2.7360 ha         1 C81       0.151000
     42 H8          -0.2700    -3.3430     2.5800 hc         1 C81       0.049367
     43 H9           1.4170    -2.8490     2.7430 hc         1 C81       0.049367
     44 H10          0.1190    -1.6650     2.9730 hc         1 C81       0.049367
     45 H11          9.4170     1.2120    -1.3490 hc         1 C81       0.052700
     46 H12          9.2820    -0.5010    -0.9530 hc         1 C81       0.052700
     47 H13          9.1420     0.0230    -2.6270 hc         1 C81       0.052700
     48 H14          7.5940     2.3830     1.3700 h1         1 C81       0.073700
     49 H15          8.1040     2.7020    -0.2960 h1         1 C81       0.073700
     50 H16         -4.0810    -3.3900    -1.9720 hc         1 C81       0.052700
     51 H17         -3.7850    -4.3280    -0.5190 hc         1 C81       0.052700
     52 H18         -5.0710    -3.1190    -0.5470 hc         1 C81       0.052700
     53 H19          6.4830    -1.7130     0.3500 ha         1 C81       0.145000
     54 H20          4.9850    -3.6380     0.6490 h4         1 C81       0.017100
     55 H21          7.4600     0.1470     0.7090 h1         1 C81       0.084700
     56 H22          1.0800    -0.1900     0.6250 hn         1 C81       0.479800
     57 O13          3.9390     2.5170    -0.0530 o          1 C81      -0.533500
@<TRIPOS>BOND
     1     1    28 ar  
     2     1    31 ar  
     3     1    33 1   
     4     2    32 1   
     5     2    34 1   
     6     2    57 2   
     7     3    16 1   
     8     3    23 1   
     9     3    24 1   
    10     3    35 1   
    11     4     5 1   
    12     4    15 1   
    13     4    33 1   
    14     4    36 1   
    15     5     9 ar  
    16     5    29 ar  
    17     6     7 ar  
    18     6    29 ar  
    19     6    37 1   
    20     7     8 ar  
    21     7    10 1   
    22     8     9 ar  
    23     8    18 1   
    24     9    38 1   
    25    10    11 ar  
    26    10    14 ar  
    27    11    12 ar  
    28    11    39 1   
    29    12    19 1   
    30    12    30 ar  
    31    13    14 ar  
    32    13    30 ar  
    33    13    40 1   
    34    14    41 1   
    35    15    42 1   
    36    15    43 1   
    37    15    44 1   
    38    16    45 1   
    39    16    46 1   
    40    16    47 1   
    41    17    23 1   
    42    17    34 1   
    43    17    48 1   
    44    17    49 1   
    45    18    50 1   
    46    18    51 1   
    47    18    52 1   
    48    19    25 1   
    49    19    26 1   
    50    19    27 1   
    51    20    21 ar  
    52    20    31 ar  
    53    20    32 1   
    54    21    22 ar  
    55    21    53 1   
    56    22    28 ar  
    57    22    54 1   
    58    23    32 1   
    59    23    55 1   
    60    33    56 1   
@<TRIPOS>SUBSTRUCTURE
     1 C81         1 TEMP              0 ****  ****    0 ROOT
