@<TRIPOS>MOLECULE
C81
   57    60     1     0     0
SMALL
No Charge or Current Charge


@<TRIPOS>ATOM
      1 C2           3.1830    -1.6740     1.3680 ca         1 C81       0.421900
      2 C12          7.6830    -0.2450     0.3310 c          1 C81       0.713100
      3 C14          5.3090     2.1860     0.4710 c3         1 C81       0.178300
      4 C15          0.6370    -2.0730     1.6280 c3         1 C81       0.203200
      5 C16         -0.6120    -1.7900     0.7530 ca         1 C81       0.349300
      6 C18         -1.7280    -0.3790    -0.7170 ca         1 C81       0.368900
      7 C19         -2.8420    -1.2490    -0.8270 cp         1 C81      -0.112000
      8 C20         -2.8100    -2.4520    -0.0710 ca         1 C81      -0.009300
      9 C21         -1.6740    -2.7110     0.7180 ca         1 C81      -0.159000
     10 C22         -3.9880    -0.8720    -1.7070 cp         1 C81       0.006000
     11 C23         -4.6100     0.3930    -1.6010 ca         1 C81      -0.106000
     12 C24         -5.6840     0.7350    -2.4500 ca         1 C81       0.238300
     13 C26         -5.5560    -1.3330    -3.5150 ca         1 C81       0.339900
     14 C27         -4.4860    -1.7400    -2.7050 ca         1 C81      -0.129000
     15 C28          0.3860    -1.6750     3.0990 c3         1 C81      -0.112100
     16 C30          4.7540     3.3900    -0.3160 c3         1 C81      -0.124100
     17 C10          7.1000     1.3250    -1.2330 c5         1 C81       0.153600
     18 C31         -3.9610    -3.4510    -0.0520 c3         1 C81      -0.057800
     19 C32         -6.3550     2.1170    -2.3120 c3         1 C81       0.267700
     20 C4           5.3730    -1.0800     0.9940 ca         1 C81       0.324900
     21 C5           5.7690    -2.1890     1.7710 ca         1 C81      -0.350000
     22 C6           4.7680    -3.0020     2.3240 ca         1 C81       0.171900
     23 C9           5.8090     1.0130    -0.4260 c5         1 C81       0.048700
     24 F29          6.2890     2.6250     1.2990 f          1 C81      -0.255000
     25 F33         -6.8860     2.2890    -1.0790 f          1 C81      -0.105333
     26 F34         -5.4680     3.1210    -2.4990 f          1 C81      -0.105333
     27 F35         -7.3610     2.3180    -3.1980 f          1 C81      -0.105333
     28 N1           3.4650    -2.7470     2.1230 nb         1 C81      -0.274000
     29 N17         -0.6400    -0.6300     0.0440 nb         1 C81      -0.676000
     30 N25         -6.1500    -0.1240    -3.3960 nb         1 C81      -0.626000
     31 N3           4.0600    -0.8390     0.7950 nb         1 C81      -0.268000
     32 N7           6.2850    -0.1610     0.3480 n          1 C81      -0.436300
     33 N8           1.8510    -1.3790     1.1290 nu         1 C81      -0.909100
     34 O11          8.1760     0.7400    -0.4700 os         1 C81      -0.405100
     35 H1           4.4970     1.8040     1.1030 h1         1 C81       0.071700
     36 H2           0.8050    -3.1590     1.5920 h1         1 C81       0.082700
     37 H3          -1.7100     0.5560    -1.2750 h4         1 C81       0.029100
     38 H4          -1.6140    -3.6200     1.3090 ha         1 C81       0.128000
     39 H5          -4.2680     1.1050    -0.8550 ha         1 C81       0.146000
     40 H6          -5.9490    -1.9940    -4.2880 h4         1 C81       0.031100
     41 H7          -4.0410    -2.7180    -2.8620 ha         1 C81       0.133000
     42 H8          -0.4910    -2.2000     3.4930 hc         1 C81       0.049367
     43 H9           1.2450    -1.9330     3.7290 hc         1 C81       0.049367
     44 H10          0.2060    -0.5970     3.1840 hc         1 C81       0.049367
     45 H11          5.5330     3.8610    -0.9270 hc         1 C81       0.052700
     46 H12          3.9380     3.0750    -0.9770 hc         1 C81       0.052700
     47 H13          4.3600     4.1460     0.3730 hc         1 C81       0.052700
     48 H14          7.0680     0.8340    -2.2150 h1         1 C81       0.073700
     49 H15          7.2840     2.3960    -1.3880 h1         1 C81       0.073700
     50 H16         -3.8870    -4.1540    -0.8900 hc         1 C81       0.052700
     51 H17         -3.9650    -4.0410     0.8730 hc         1 C81       0.052700
     52 H18         -4.9330    -2.9480    -0.1140 hc         1 C81       0.052700
     53 H19          6.8030    -2.4400     1.9660 ha         1 C81       0.127000
     54 H20          5.0130    -3.8700     2.9340 h4         1 C81       0.017100
     55 H21          4.9980     0.7360    -1.1140 h1         1 C81       0.084700
     56 H22          1.6770    -0.6000     0.4890 hn         1 C81       0.535000
     57 O13          8.3880    -1.0400     0.9280 o          1 C81      -0.458000
@<TRIPOS>BOND
     1     1    28 ar  
     2     1    31 ar  
     3     1    33 1   
     4     2    32 1   
     5     2    34 1   
     6     2    57 2   
     7     3    16 1   
     8     3    23 1   
     9     3    24 1   
    10     3    35 1   
    11     4     5 1   
    12     4    15 1   
    13     4    33 1   
    14     4    36 1   
    15     5     9 ar  
    16     5    29 ar  
    17     6     7 ar  
    18     6    29 ar  
    19     6    37 1   
    20     7     8 ar  
    21     7    10 1   
    22     8     9 ar  
    23     8    18 1   
    24     9    38 1   
    25    10    11 ar  
    26    10    14 ar  
    27    11    12 ar  
    28    11    39 1   
    29    12    19 1   
    30    12    30 ar  
    31    13    14 ar  
    32    13    30 ar  
    33    13    40 1   
    34    14    41 1   
    35    15    42 1   
    36    15    43 1   
    37    15    44 1   
    38    16    45 1   
    39    16    46 1   
    40    16    47 1   
    41    17    23 1   
    42    17    34 1   
    43    17    48 1   
    44    17    49 1   
    45    18    50 1   
    46    18    51 1   
    47    18    52 1   
    48    19    25 1   
    49    19    26 1   
    50    19    27 1   
    51    20    21 ar  
    52    20    31 ar  
    53    20    32 1   
    54    21    22 ar  
    55    21    53 1   
    56    22    28 ar  
    57    22    54 1   
    58    23    32 1   
    59    23    55 1   
    60    33    56 1   
@<TRIPOS>SUBSTRUCTURE
     1 C81         1 TEMP              0 ****  ****    0 ROOT
