@<TRIPOS>MOLECULE
C82
   20    21     1     0     0
SMALL
abcg2


@<TRIPOS>ATOM
      1 N            1.3490    -1.1500     0.1910 nu         1 C82      -0.978000
      2 C           -0.3030     0.5370    -0.4520 ca         1 C82      -0.165500
      3 C2          -2.6350     0.0220    -0.2240 ca         1 C82       0.083000
      4 C1          -1.6330     0.9080    -0.5790 ca         1 C82      -0.060500
      5 C3          -2.3170    -1.2400     0.2590 ca         1 C82      -0.060500
      6 C4          -0.9900    -1.6030     0.3960 ca         1 C82      -0.165500
      7 C5           0.0370    -0.7230     0.0430 ca         1 C82       0.315000
      8 C6           2.4740    -0.3850     0.0400 cc         1 C82       0.195000
      9 N3           2.6490     0.8470     0.5560 na         1 C82      -0.037200
     10 N2           3.8630     1.3170     0.2910 nc         1 C82      -0.197800
     11 N1           4.4930     0.4080    -0.3630 nd         1 C82      -0.340000
     12 C7           3.6860    -0.6550    -0.5550 cd         1 C82       0.152900
     13 H5           1.5000    -2.1460     0.2000 hn         1 C82       0.513000
     14 H1           0.4560     1.2420    -0.7670 ha         1 C82       0.122500
     15 H2          -1.8780     1.8870    -0.9670 ha         1 C82       0.132000
     16 H3          -3.0950    -1.9380     0.5350 ha         1 C82       0.132000
     17 H4          -0.7470    -2.5850     0.7830 ha         1 C82       0.122500
     18 H            2.0040     1.4040     1.0970 hn         1 C82       0.382000
     19 H6           3.9950    -1.5400    -1.0860 h4         1 C82       0.052100
     20 CL          -4.2980     0.4880    -0.3860 cl         1 C82      -0.197000
@<TRIPOS>BOND
     1     1     7 1   
     2     1     8 1   
     3     1    13 1   
     4     2     4 ar  
     5     2     7 ar  
     6     2    14 1   
     7     3     4 ar  
     8     3     5 ar  
     9     3    20 1   
    10     4    15 1   
    11     5     6 ar  
    12     5    16 1   
    13     6     7 ar  
    14     6    17 1   
    15     8     9 1   
    16     8    12 2   
    17     9    10 1   
    18     9    18 1   
    19    10    11 2   
    20    11    12 1   
    21    12    19 1   
@<TRIPOS>SUBSTRUCTURE
     1 C82         1 TEMP              0 ****  ****    0 ROOT
