@<TRIPOS>MOLECULE
C82
   20    21     1     0     0
SMALL
No Charge or Current Charge


@<TRIPOS>ATOM
      1 N            1.3440    -1.0830    -0.2390 nu         1 C82      -0.978000
      2 C           -0.4050     0.5770    -0.6180 ca         1 C82      -0.165500
      3 C2          -2.7120     0.0390    -0.0570 ca         1 C82       0.083000
      4 C1          -1.7620     0.9460    -0.5560 ca         1 C82      -0.060500
      5 C3          -2.3090    -1.2370     0.3720 ca         1 C82      -0.060500
      6 C4          -0.9510    -1.6020     0.3060 ca         1 C82      -0.165500
      7 C5           0.0060    -0.6950    -0.1780 ca         1 C82       0.315000
      8 C6           2.5380    -0.3910    -0.0550 cc         1 C82       0.195000
      9 N3           2.6510     0.8910     0.4160 na         1 C82      -0.037200
     10 N2           3.9560     1.2900     0.5030 nc         1 C82      -0.197800
     11 N1           4.6780     0.2770     0.0990 nd         1 C82      -0.340000
     12 C7           3.8430    -0.7720    -0.2440 cd         1 C82       0.152900
     13 H5           1.4740    -2.0970    -0.3120 hn         1 C82       0.513000
     14 H1           0.3180     1.2740    -1.0300 ha         1 C82       0.122500
     15 H2          -2.0770     1.9280    -0.8990 ha         1 C82       0.132000
     16 H3          -3.0460    -1.9390     0.7530 ha         1 C82       0.132000
     17 H4          -0.6450    -2.5890     0.6410 ha         1 C82       0.122500
     18 H            1.8920     1.5010     0.6920 hn         1 C82       0.382000
     19 H6           4.2240    -1.7200    -0.6010 h4         1 C82       0.052100
     20 Cl          -4.4080     0.4970     0.0210 cl         1 C82      -0.197000
@<TRIPOS>BOND
     1     1     7 1   
     2     1     8 1   
     3     1    13 1   
     4     2     4 ar  
     5     2     7 ar  
     6     2    14 1   
     7     3     4 ar  
     8     3     5 ar  
     9     3    20 1   
    10     4    15 1   
    11     5     6 ar  
    12     5    16 1   
    13     6     7 ar  
    14     6    17 1   
    15     8     9 1   
    16     8    12 2   
    17     9    10 1   
    18     9    18 1   
    19    10    11 2   
    20    11    12 1   
    21    12    19 1   
@<TRIPOS>SUBSTRUCTURE
     1 C82         1 TEMP              0 ****  ****    0 ROOT
