@<TRIPOS>MOLECULE
C83
   47    49     1     0     0
SMALL
abcg2


@<TRIPOS>ATOM
      1 C1           3.5940    -0.1420    -0.9140 c6         1 C83       0.216500
      2 C2           2.4740    -1.1020    -0.4930 ca         1 C83      -0.102300
      3 C3           1.1480    -0.6900    -0.4950 ca         1 C83      -0.123000
      4 C4           0.0940    -1.5300    -0.1340 ca         1 C83      -0.030000
      5 C5          -2.3780    -1.5580     0.0550 c          1 C83       0.529600
      6 C6          -3.5330    -0.6160    -0.0590 ca         1 C83       0.186500
      7 C7          -4.3010     1.4880    -0.4510 ca         1 C83       0.290900
      8 N1          -3.2910     0.6600    -0.3620 nb         1 C83      -0.621000
      9 N2          -5.8600    -0.2250     0.0790 nb         1 C83      -0.722000
     10 O1          -2.5540    -2.7330     0.3290 o          1 C83      -0.585100
     11 C8          -5.6070     1.0240    -0.2190 ca         1 C83       0.553300
     12 N3           3.0440     1.1230    -1.3370 n2         1 C83      -0.704900
     13 C9          -7.9100     1.4960    -0.1230 c3         1 C83       0.418600
     14 C10         -4.8260    -1.0570     0.1560 ca         1 C83       0.400900
     15 C11          0.3670    -2.8430     0.2390 ca         1 C83      -0.106000
     16 C12          1.6820    -3.2790     0.2420 ca         1 C83      -0.128000
     17 C13          2.7010    -2.4240    -0.1170 ca         1 C83       0.140000
     18 C14          2.8690     2.1110    -0.5620 c2         1 C83       0.708100
     19 C15          3.9530     0.5890     1.5080 c6         1 C83       0.057300
     20 F2           5.6070     0.8610    -0.1560 f          1 C83      -0.252000
     21 C17          4.5800     0.0200     0.2560 c6         1 C83       0.164300
     22 C16          4.9400     0.7400     2.6550 c3         1 C83      -0.081100
     23 S            3.2160     2.2210     1.1730 ss         1 C83      -0.387200
     24 N4           2.2910     3.2570    -1.0170 nv         1 C83      -1.017200
     25 C            4.3170    -0.7100    -2.1450 c3         1 C83      -0.072100
     26 F1           3.9560    -2.9150    -0.0870 f          1 C83      -0.186000
     27 N           -1.1850    -0.9700    -0.1690 ns         1 C83      -0.125000
     28 O           -6.5960     1.9190    -0.3130 os         1 C83      -0.472300
     29 F           -8.1350     1.2870     1.2140 f          1 C83      -0.258000
     30 H1           0.9200     0.3220    -0.8030 ha         1 C83       0.136000
     31 H2          -4.1060     2.5240    -0.6990 h4         1 C83       0.052100
     32 H3          -8.5400     2.3150    -0.4620 h2         1 C83       0.071700
     33 H4          -8.1240     0.5740    -0.6610 h2         1 C83       0.071700
     34 H5          -5.0410    -2.0890     0.4000 h4         1 C83       0.059100
     35 H6          -0.4150    -3.5260     0.5260 ha         1 C83       0.153000
     36 H7           1.9170    -4.2950     0.5300 ha         1 C83       0.135000
     37 H8           3.1490    -0.0810     1.8190 h1         1 C83       0.089700
     38 H9           5.0330    -0.9400     0.5090 h1         1 C83       0.085700
     39 H10          4.4530     1.1580     3.5350 hc         1 C83       0.052700
     40 H11          5.3330    -0.2400     2.9320 hc         1 C83       0.052700
     41 H12          5.7750     1.3860     2.3880 hc         1 C83       0.052700
     42 H13          2.2520     3.3520    -2.0200 hn         1 C83       0.476500
     43 H14          2.4810     4.1190    -0.5310 hn         1 C83       0.476500
     44 H15          3.5960    -0.8540    -2.9490 hc         1 C83       0.052367
     45 H16          5.0710    -0.0080    -2.4980 hc         1 C83       0.052367
     46 H17          4.8040    -1.6620    -1.9480 hc         1 C83       0.052367
     47 H18         -1.2340     0.0150    -0.3940 hn         1 C83       0.184000
@<TRIPOS>BOND
     1     1     2 1   
     2     1    12 1   
     3     1    21 1   
     4     1    25 1   
     5     2     3 ar  
     6     2    17 ar  
     7     3     4 ar  
     8     3    30 1   
     9     4    15 ar  
    10     4    27 1   
    11     5     6 1   
    12     5    10 2   
    13     5    27 1   
    14     6     8 ar  
    15     6    14 ar  
    16     7     8 ar  
    17     7    11 ar  
    18     7    31 1   
    19     9    11 ar  
    20     9    14 ar  
    21    11    28 1   
    22    12    18 2   
    23    13    28 1   
    24    13    29 1   
    25    13    32 1   
    26    13    33 1   
    27    14    34 1   
    28    15    16 ar  
    29    15    35 1   
    30    16    17 ar  
    31    16    36 1   
    32    17    26 1   
    33    18    23 1   
    34    18    24 1   
    35    19    21 1   
    36    19    22 1   
    37    19    23 1   
    38    19    37 1   
    39    20    21 1   
    40    21    38 1   
    41    22    39 1   
    42    22    40 1   
    43    22    41 1   
    44    24    42 1   
    45    24    43 1   
    46    25    44 1   
    47    25    45 1   
    48    25    46 1   
    49    27    47 1   
@<TRIPOS>SUBSTRUCTURE
     1 C83         1 TEMP              0 ****  ****    0 ROOT
