@<TRIPOS>MOLECULE
C83
   47    49     1     0     0
SMALL
No Charge or Current Charge


@<TRIPOS>ATOM
      1 C1           3.6770    -0.1250    -0.9090 c6         1 C83       0.216500
      2 C2           2.5140    -1.1010    -0.5120 ca         1 C83      -0.102300
      3 C3           1.1560    -0.6790    -0.5160 ca         1 C83      -0.123000
      4 C4           0.1040    -1.5420    -0.1490 ca         1 C83      -0.030000
      5 C5          -2.4630    -1.5600     0.1120 c          1 C83       0.529600
      6 C6          -3.6250    -0.6040    -0.0820 ca         1 C83       0.186500
      7 C7          -4.5090     1.4590    -0.6620 ca         1 C83       0.290900
      8 N1          -3.3960     0.6800    -0.5210 nb         1 C83      -0.621000
      9 N2          -6.0500    -0.2840     0.0510 nb         1 C83      -0.722000
     10 O1          -2.6240    -2.7140     0.5020 o          1 C83      -0.585100
     11 C8          -5.8260     0.9900    -0.3720 ca         1 C83       0.553300
     12 N3           3.1430     1.1960    -1.3460 n2         1 C83      -0.704900
     13 C9          -8.1930     1.5250    -0.0340 c3         1 C83       0.418600
     14 C10         -4.9420    -1.0670     0.1950 ca         1 C83       0.400900
     15 C11          0.4020    -2.8650     0.2320 ca         1 C83      -0.106000
     16 C12          1.7330    -3.3060     0.2390 ca         1 C83      -0.128000
     17 C13          2.7750    -2.4430    -0.1270 ca         1 C83       0.140000
     18 C14          2.9590     2.1690    -0.5430 c2         1 C83       0.708100
     19 C15          4.0720     0.6020     1.5210 c6         1 C83       0.057300
     20 F2           5.7890     0.8530    -0.1480 f          1 C83      -0.252000
     21 C17          4.7290     0.0030     0.2560 c6         1 C83       0.164300
     22 C16          5.0400     0.6850     2.7290 c3         1 C83      -0.081100
     23 S            3.3590     2.2680     1.1860 ss         1 C83      -0.387200
     24 N4           2.4690     3.3460    -0.9660 nv         1 C83      -1.017200
     25 C            4.3740    -0.6800    -2.1910 c3         1 C83      -0.072100
     26 F1           4.0310    -2.9370    -0.0980 f          1 C83      -0.186000
     27 N           -1.2180    -1.0140    -0.1870 ns         1 C83      -0.125000
     28 O           -6.8930     1.8380    -0.5660 os         1 C83      -0.472300
     29 F           -8.1950     1.6480     1.3160 f          1 C83      -0.258000
     30 H1           0.8900     0.3330    -0.8080 ha         1 C83       0.136000
     31 H2          -4.3520     2.4780    -1.0120 h4         1 C83       0.052100
     32 H3          -8.9420     2.2150    -0.4380 h2         1 C83       0.071700
     33 H4          -8.5010     0.5080    -0.3010 h2         1 C83       0.071700
     34 H5          -5.1170    -2.0860     0.5390 h4         1 C83       0.059100
     35 H6          -0.3750    -3.5660     0.5210 ha         1 C83       0.153000
     36 H7           1.9610    -4.3290     0.5300 ha         1 C83       0.135000
     37 H8           3.2350    -0.0480     1.8120 h1         1 C83       0.089700
     38 H9           5.1800    -0.9680     0.4950 h1         1 C83       0.085700
     39 H10          4.5240     1.0610     3.6200 hc         1 C83       0.052700
     40 H11          5.4500    -0.3020     2.9760 hc         1 C83       0.052700
     41 H12          5.8820     1.3560     2.5240 hc         1 C83       0.052700
     42 H13          2.5860     3.4610    -1.9640 hn         1 C83       0.476500
     43 H14          2.7760     4.1290    -0.4050 hn         1 C83       0.476500
     44 H15          3.6430    -0.8710    -2.9850 hc         1 C83       0.052367
     45 H16          5.1090     0.0300    -2.5890 hc         1 C83       0.052367
     46 H17          4.9080    -1.6170    -2.0050 hc         1 C83       0.052367
     47 H18         -1.2690    -0.0500    -0.4930 hn         1 C83       0.184000
@<TRIPOS>BOND
     1     1     2 1   
     2     1    12 1   
     3     1    21 1   
     4     1    25 1   
     5     2     3 ar  
     6     2    17 ar  
     7     3     4 ar  
     8     3    30 1   
     9     4    15 ar  
    10     4    27 1   
    11     5     6 1   
    12     5    10 2   
    13     5    27 1   
    14     6     8 ar  
    15     6    14 ar  
    16     7     8 ar  
    17     7    11 ar  
    18     7    31 1   
    19     9    11 ar  
    20     9    14 ar  
    21    11    28 1   
    22    12    18 2   
    23    13    28 1   
    24    13    29 1   
    25    13    32 1   
    26    13    33 1   
    27    14    34 1   
    28    15    16 ar  
    29    15    35 1   
    30    16    17 ar  
    31    16    36 1   
    32    17    26 1   
    33    18    23 1   
    34    18    24 1   
    35    19    21 1   
    36    19    22 1   
    37    19    23 1   
    38    19    37 1   
    39    20    21 1   
    40    21    38 1   
    41    22    39 1   
    42    22    40 1   
    43    22    41 1   
    44    24    42 1   
    45    24    43 1   
    46    25    44 1   
    47    25    45 1   
    48    25    46 1   
    49    27    47 1   
@<TRIPOS>SUBSTRUCTURE
     1 C83         1 TEMP              0 ****  ****    0 ROOT
