@<TRIPOS>MOLECULE
C85
   34    36     1     0     0
SMALL
bcc


@<TRIPOS>ATOM
      1 O4           5.0330    -2.1900     0.7640 o          1 C85      -0.616300
      2 S2           5.2000    -0.9380     0.0410 sy         1 C85       1.280200
      3 O3           6.2140     0.0090     0.4820 o          1 C85      -0.616300
      4 N6           5.3810    -1.3490    -1.5360 n8         1 C85      -0.907700
      5 C16          3.6510    -0.0800     0.0380 ca         1 C85      -0.259500
      6 C15          2.4760    -0.8150    -0.0580 ca         1 C85      -0.028500
      7 C14          1.2610    -0.1580    -0.0690 ca         1 C85      -0.128500
      8 C13          1.2070     1.2380     0.0190 ca         1 C85      -0.074500
      9 C18          2.4020     1.9560     0.1180 ca         1 C85      -0.128500
     10 C17          3.6200     1.3030     0.1270 ca         1 C85      -0.028500
     11 C4          -0.0590     1.9410     0.0120 cc         1 C85       0.310200
     12 O2          -1.1840     1.2020    -0.0140 os         1 C85      -0.314800
     13 C3          -0.3880     3.2690     0.0100 cd         1 C85      -0.247300
     14 C2          -1.7970     3.3340    -0.0220 cd         1 C85      -0.217300
     15 C1          -2.2430     2.0400    -0.0370 cc         1 C85       0.266500
     16 C6          -3.5540     1.4920    -0.0310 ce         1 C85      -0.109800
     17 C7          -3.8770     0.1870    -0.0040 cd         1 C85      -0.124600
     18 S1          -2.7850    -1.1790     0.0110 ss         1 C85      -0.072800
     19 C9          -4.1340    -2.3220     0.0320 cc         1 C85       0.483800
     20 N3          -3.9210    -3.5620     0.0480 n2         1 C85      -0.768100
     21 N2          -5.3260    -1.6300     0.0270 ns         1 C85      -0.541400
     22 C8          -5.2870    -0.2630     0.0120 c          1 C85       0.728700
     23 O1          -6.2580     0.4580     0.0180 o          1 C85      -0.577500
     24 H6N1         5.8770    -0.6470    -2.0740 hn         1 C85       0.425300
     25 H6N2         5.8230    -2.2560    -1.6370 hn         1 C85       0.425300
     26 H17          4.5310     1.8800     0.2120 ha         1 C85       0.157500
     27 H15          2.4990    -1.8940    -0.1220 ha         1 C85       0.157500
     28 H18          2.3920     3.0350     0.1940 ha         1 C85       0.146000
     29 H14          0.3560    -0.7440    -0.1530 ha         1 C85       0.146000
     30 H3           0.2930     4.1030     0.0360 ha         1 C85       0.166000
     31 H2          -2.4140     4.2180    -0.0480 ha         1 C85       0.168000
     32 H6          -4.3660     2.2090    -0.0470 ha         1 C85       0.169000
     33 H3N1        -6.2070    -2.1270     0.0360 hn         1 C85       0.339500
     34 H3N2        -4.7770    -4.1060     0.0660 hn         1 C85       0.393400
@<TRIPOS>BOND
     1     1     2 2   
     2     2     3 2   
     3     2     4 1   
     4     2     5 1   
     5     4    24 1   
     6     4    25 1   
     7     5     6 ar  
     8     5    10 ar  
     9     6     7 ar  
    10     6    27 1   
    11     7     8 ar  
    12     7    29 1   
    13     8     9 ar  
    14     8    11 1   
    15     9    10 ar  
    16     9    28 1   
    17    10    26 1   
    18    11    12 1   
    19    11    13 2   
    20    12    15 1   
    21    13    14 1   
    22    13    30 1   
    23    14    15 2   
    24    14    31 1   
    25    15    16 1   
    26    16    17 2   
    27    16    32 1   
    28    17    18 1   
    29    17    22 1   
    30    18    19 1   
    31    19    20 2   
    32    19    21 1   
    33    20    34 1   
    34    21    22 1   
    35    21    33 1   
    36    22    23 2   
@<TRIPOS>SUBSTRUCTURE
     1 C85         1 TEMP              0 ****  ****    0 ROOT
