@<TRIPOS>MOLECULE
C85
   34    36     1     0     0
SMALL
No Charge or Current Charge


@<TRIPOS>ATOM
      1 O4           5.4750    -2.1460     0.4850 o          1 C85      -0.545500
      2 S2           5.5250    -0.7700    -0.0040 sy         1 C85       1.138600
      3 O3           6.5360     0.1830     0.4490 o          1 C85      -0.545500
      4 N6           5.8530    -0.9430    -1.5910 n8         1 C85      -1.018100
      5 C16          3.8900    -0.0250    -0.0030 ca         1 C85      -0.259500
      6 C15          2.7400    -0.8380     0.0140 ca         1 C85      -0.010500
      7 C14          1.4620    -0.2510     0.0150 ca         1 C85      -0.110500
      8 C13          1.3080     1.1520    -0.0020 ca         1 C85      -0.074500
      9 C18          2.4680     1.9580    -0.0220 ca         1 C85      -0.110500
     10 C17          3.7490     1.3770    -0.0230 ca         1 C85      -0.010500
     11 C4          -0.0400     1.7370    -0.0010 cc         1 C85       0.200500
     12 O2          -1.1780     0.9680     0.0090 os         1 C85      -0.226000
     13 C3          -0.3510     3.0680    -0.0080 cd         1 C85      -0.164000
     14 C2          -1.7610     3.1330    -0.0020 cd         1 C85      -0.134000
     15 C1          -2.2400     1.8460     0.0080 cc         1 C85       0.156800
     16 C6          -3.6150     1.3600     0.0170 ce         1 C85      -0.159800
     17 C7          -4.1840     0.1000     0.0280 cd         1 C85      -0.124600
     18 S1          -3.2020    -1.3820     0.0340 ss         1 C85      -0.072800
     19 C9          -4.6950    -2.3070     0.0460 cc         1 C85       0.483800
     20 N3          -4.6700    -3.5940     0.0550 n2         1 C85      -0.768100
     21 N2          -5.8010    -1.5270     0.0460 ns         1 C85      -0.474400
     22 C8          -5.6400    -0.1810     0.0360 c          1 C85       0.586200
     23 O1          -6.5540     0.6280     0.0340 o          1 C85      -0.502000
     24 H6N1         6.7630    -0.4910    -1.6350 hn         1 C85       0.480500
     25 H6N2         6.1050    -1.9290    -1.6140 hn         1 C85       0.480500
     26 H17          4.6270     2.0200    -0.0410 ha         1 C85       0.139500
     27 H15          2.8290    -1.9230     0.0250 ha         1 C85       0.139500
     28 H18          2.3930     3.0420    -0.0380 ha         1 C85       0.128000
     29 H14          0.5880    -0.8990     0.0290 ha         1 C85       0.128000
     30 H3           0.3350     3.9080    -0.0150 ha         1 C85       0.148000
     31 H2          -2.3640     4.0350    -0.0050 ha         1 C85       0.150000
     32 H6          -4.3420     2.1730     0.0150 ha         1 C85       0.219000
     33 H3N1        -6.7360    -1.9080     0.0520 hn         1 C85       0.339500
     34 H3N2        -5.6330    -3.9590     0.0610 hn         1 C85       0.393400
@<TRIPOS>BOND
     1     1     2 2   
     2     2     3 2   
     3     2     4 1   
     4     2     5 1   
     5     4    24 1   
     6     4    25 1   
     7     5     6 ar  
     8     5    10 ar  
     9     6     7 ar  
    10     6    27 1   
    11     7     8 ar  
    12     7    29 1   
    13     8     9 ar  
    14     8    11 1   
    15     9    10 ar  
    16     9    28 1   
    17    10    26 1   
    18    11    12 1   
    19    11    13 2   
    20    12    15 1   
    21    13    14 1   
    22    13    30 1   
    23    14    15 2   
    24    14    31 1   
    25    15    16 1   
    26    16    17 2   
    27    16    32 1   
    28    17    18 1   
    29    17    22 1   
    30    18    19 1   
    31    19    20 2   
    32    19    21 1   
    33    20    34 1   
    34    21    22 1   
    35    21    33 1   
    36    22    23 2   
@<TRIPOS>SUBSTRUCTURE
     1 C85         1 TEMP              0 ****  ****    0 ROOT
