@<TRIPOS>MOLECULE
C86
   47    49     1     0     0
SMALL
abcg2


@<TRIPOS>ATOM
      1 C1          -2.2930    -1.5840    -1.6280 c2         1 C86       0.698100
      2 C2          -3.0720     0.6500    -1.4830 c6         1 C86       0.233500
      3 C3          -2.0220     1.3950    -0.6480 ca         1 C86      -0.105300
      4 C4          -0.6880     1.0090    -0.6610 ca         1 C86      -0.124000
      5 C5           0.3000     1.6730     0.0670 ca         1 C86      -0.029000
      6 C6           2.7380     1.6080     0.5160 c          1 C86       0.529600
      7 C7           3.9320     0.7810     0.1670 ca         1 C86       0.185500
      8 N1          -1.6580    -2.6060    -2.2590 nv         1 C86      -1.020200
      9 N2          -2.4740    -0.4620    -2.1880 n2         1 C86      -0.692900
     10 O1           2.8420     2.5820     1.2420 o          1 C86      -0.584100
     11 C8           4.8160    -1.0050    -0.9280 ca         1 C86       0.289900
     12 N3           1.5950     1.1610    -0.0420 ns         1 C86      -0.125000
     13 C9           6.0780    -0.6630    -0.4110 ca         1 C86       0.554300
     14 C10          8.3810    -1.1290    -0.2850 c3         1 C86       0.418600
     15 C11          5.1810     1.1050     0.6640 ca         1 C86       0.401900
     16 C12         -0.0500     2.7750     0.8420 ca         1 C86      -0.105000
     17 C13         -1.3750     3.1830     0.8650 ca         1 C86      -0.127000
     18 C14         -2.3260     2.5050     0.1340 ca         1 C86       0.142000
     19 C15         -3.6200     1.5870    -2.5650 c3         1 C86      -0.071100
     20 N4           3.7690    -0.2790    -0.6280 nb         1 C86      -0.620000
     21 F1           8.4850    -1.5040     1.0300 f          1 C86      -0.257000
     22 N5           6.2510     0.3710     0.3730 nb         1 C86      -0.723000
     23 F2          -3.5940     2.9590     0.2000 f          1 C86      -0.185000
     24 C16         -4.2410     0.1530    -0.6150 c6         1 C86      -0.105400
     25 C17         -3.7810    -0.6900     0.5600 c6         1 C86      -0.004700
     26 S1          -2.6480    -2.0270     0.0600 ss         1 C86      -0.350200
     27 C18         -4.9400    -1.3330     1.2950 c3         1 C86       0.313000
     28 F3          -4.5070    -2.1020     2.3030 f          1 C86      -0.106333
     29 F4          -5.7480    -0.4070     1.8230 f          1 C86      -0.106333
     30 F5          -5.6880    -2.1070     0.5050 f          1 C86      -0.106333
     31 H1          -0.3950     0.1630    -1.2690 ha         1 C86       0.133000
     32 H2          -1.5070    -2.4790    -3.2480 hn         1 C86       0.480000
     33 H3          -1.8750    -3.5520    -1.9890 hn         1 C86       0.480000
     34 H4           4.6870    -1.8640    -1.5750 h4         1 C86       0.051100
     35 H5           1.6990     0.3370    -0.6220 hn         1 C86       0.184000
     36 H6           9.0720    -1.7250    -0.8760 h2         1 C86       0.072200
     37 H7           8.5970    -0.0650    -0.3630 h2         1 C86       0.072200
     38 H8           5.3310     1.9600     1.3080 h4         1 C86       0.059100
     39 H9           0.6770     3.3150     1.4240 ha         1 C86       0.154000
     40 H10         -1.6670     4.0390     1.4600 ha         1 C86       0.136000
     41 H11         -2.8080     1.9420    -3.1990 hc         1 C86       0.049367
     42 H12         -4.3270     1.0450    -3.1950 hc         1 C86       0.049367
     43 H13         -4.1350     2.4490    -2.1470 hc         1 C86       0.049367
     44 H14         -4.8170     0.9940    -0.2340 hc         1 C86       0.082700
     45 H15         -4.9050    -0.4180    -1.2680 hc         1 C86       0.082700
     46 H16         -3.2490    -0.0670     1.2840 h1         1 C86       0.118700
     47 O2           7.1070    -1.4420    -0.7570 os         1 C86      -0.472300
@<TRIPOS>BOND
     1     1     8 1   
     2     1     9 2   
     3     1    26 1   
     4     2     3 1   
     5     2     9 1   
     6     2    19 1   
     7     2    24 1   
     8     3     4 ar  
     9     3    18 ar  
    10     4     5 ar  
    11     4    31 1   
    12     5    12 1   
    13     5    16 ar  
    14     6     7 1   
    15     6    10 2   
    16     6    12 1   
    17     7    15 ar  
    18     7    20 ar  
    19     8    32 1   
    20     8    33 1   
    21    11    13 ar  
    22    11    20 ar  
    23    11    34 1   
    24    12    35 1   
    25    13    22 ar  
    26    13    47 1   
    27    14    21 1   
    28    14    36 1   
    29    14    37 1   
    30    14    47 1   
    31    15    22 ar  
    32    15    38 1   
    33    16    17 ar  
    34    16    39 1   
    35    17    18 ar  
    36    17    40 1   
    37    18    23 1   
    38    19    41 1   
    39    19    42 1   
    40    19    43 1   
    41    24    25 1   
    42    24    44 1   
    43    24    45 1   
    44    25    26 1   
    45    25    27 1   
    46    25    46 1   
    47    27    28 1   
    48    27    29 1   
    49    27    30 1   
@<TRIPOS>SUBSTRUCTURE
     1 C86         1 TEMP              0 ****  ****    0 ROOT
