@<TRIPOS>MOLECULE
C86
   47    49     1     0     0
SMALL
No Charge or Current Charge


@<TRIPOS>ATOM
      1 C1          -2.4030    -1.6480    -1.8170 c2         1 C86       0.698100
      2 C2          -3.1730     0.6270    -1.5030 c6         1 C86       0.233500
      3 C3          -2.0860     1.4160    -0.6910 ca         1 C86      -0.105300
      4 C4          -0.7210     1.0190    -0.7030 ca         1 C86      -0.124000
      5 C5           0.2650     1.7080     0.0310 ca         1 C86      -0.029000
      6 C6           2.7950     1.6360     0.5300 c          1 C86       0.529600
      7 C7           4.0000     0.7960     0.1450 ca         1 C86       0.185500
      8 N1          -1.8440    -2.6270    -2.5520 nv         1 C86      -1.020200
      9 N2          -2.5750    -0.4780    -2.2880 n2         1 C86      -0.692900
     10 O1           2.8840     2.5950     1.2930 o          1 C86      -0.584100
     11 C8           4.9970    -0.9580    -0.9950 ca         1 C86       0.289900
     12 N3           1.6010     1.2220    -0.0510 ns         1 C86      -0.125000
     13 C9           6.2660    -0.6140    -0.4390 ca         1 C86       0.554300
     14 C10          8.6070    -1.2330    -0.0690 c3         1 C86       0.418600
     15 C11          5.2700     1.1400     0.6870 ca         1 C86       0.401900
     16 C12         -0.1090     2.8290     0.7980 ca         1 C86      -0.105000
     17 C13         -1.4470     3.2450     0.8200 ca         1 C86      -0.127000
     18 C14         -2.4230     2.5540     0.0880 ca         1 C86       0.142000
     19 C15         -3.7770     1.5630    -2.5910 c3         1 C86      -0.071100
     20 N4           3.8520    -0.2690    -0.7130 nb         1 C86      -0.620000
     21 F1           8.4890    -1.7980     1.1590 f          1 C86      -0.257000
     22 N5           6.4110     0.4470     0.4000 nb         1 C86      -0.723000
     23 F2          -3.6910     3.0160     0.1550 f          1 C86      -0.185000
     24 C16         -4.3180     0.0980    -0.5870 c6         1 C86      -0.105400
     25 C17         -3.7680    -0.8300     0.5210 c6         1 C86      -0.004700
     26 S1          -2.9350    -2.2900    -0.2470 ss         1 C86      -0.350200
     27 C18         -4.8510    -1.2800     1.5500 c3         1 C86       0.313000
     28 F3          -4.3210    -2.0690     2.5120 f          1 C86      -0.106333
     29 F4          -5.4140    -0.2200     2.1730 f          1 C86      -0.106333
     30 F5          -5.8490    -1.9780     0.9600 f          1 C86      -0.106333
     31 H1          -0.3980     0.1630    -1.2880 ha         1 C86       0.133000
     32 H2          -1.8830    -2.4180    -3.5420 hn         1 C86       0.480000
     33 H3          -2.1620    -3.5520    -2.2970 hn         1 C86       0.480000
     34 H4           4.9040    -1.8030    -1.6750 h4         1 C86       0.051100
     35 H5           1.7090     0.4130    -0.6520 hn         1 C86       0.184000
     36 H6           9.4110    -1.7510    -0.6030 h2         1 C86       0.072200
     37 H7           8.9070    -0.1850     0.0460 h2         1 C86       0.072200
     38 H8           5.3810     1.9870     1.3620 h4         1 C86       0.059100
     39 H9           0.6160     3.3910     1.3780 ha         1 C86       0.154000
     40 H10         -1.7330     4.1120     1.4100 ha         1 C86       0.136000
     41 H11         -2.9920     1.9870    -3.2290 hc         1 C86       0.049367
     42 H12         -4.4740     1.0220    -3.2430 hc         1 C86       0.049367
     43 H13         -4.3350     2.4010    -2.1610 hc         1 C86       0.049367
     44 H14         -4.8760     0.9290    -0.1380 hc         1 C86       0.082700
     45 H15         -5.0540    -0.4470    -1.1950 hc         1 C86       0.082700
     46 H16         -2.9980    -0.2870     1.0870 h1         1 C86       0.118700
     47 O2           7.3720    -1.3510    -0.7980 os         1 C86      -0.472300
@<TRIPOS>BOND
     1     1     8 1   
     2     1     9 2   
     3     1    26 1   
     4     2     3 1   
     5     2     9 1   
     6     2    19 1   
     7     2    24 1   
     8     3     4 ar  
     9     3    18 ar  
    10     4     5 ar  
    11     4    31 1   
    12     5    12 1   
    13     5    16 ar  
    14     6     7 1   
    15     6    10 2   
    16     6    12 1   
    17     7    15 ar  
    18     7    20 ar  
    19     8    32 1   
    20     8    33 1   
    21    11    13 ar  
    22    11    20 ar  
    23    11    34 1   
    24    12    35 1   
    25    13    22 ar  
    26    13    47 1   
    27    14    21 1   
    28    14    36 1   
    29    14    37 1   
    30    14    47 1   
    31    15    22 ar  
    32    15    38 1   
    33    16    17 ar  
    34    16    39 1   
    35    17    18 ar  
    36    17    40 1   
    37    18    23 1   
    38    19    41 1   
    39    19    42 1   
    40    19    43 1   
    41    24    25 1   
    42    24    44 1   
    43    24    45 1   
    44    25    26 1   
    45    25    27 1   
    46    25    46 1   
    47    27    28 1   
    48    27    29 1   
    49    27    30 1   
@<TRIPOS>SUBSTRUCTURE
     1 C86         1 TEMP              0 ****  ****    0 ROOT
