@<TRIPOS>MOLECULE
C88
   50    53     1     0     0
SMALL
No Charge or Current Charge


@<TRIPOS>ATOM
      1 CAJ          4.0430    -0.3050     0.8180 c6         1 C88      -0.072900
      2 CAH          4.9180    -1.1280     1.7960 c6         1 C88       0.161800
      3 NAP          6.1280    -1.6580     1.1230 n7         1 C88      -0.863400
      4 CAI          5.8050    -2.4970    -0.0560 c6         1 C88       0.161800
      5 CAK          4.9580    -1.7120    -1.0890 c6         1 C88      -0.072900
      6 CAY          3.6680    -1.1360    -0.4420 c6         1 C88      -0.080700
      7 CAL          2.8360    -0.3180    -1.4740 c3         1 C88       0.099600
      8 NAZ          1.5360     0.1740    -0.9790 na         1 C88      -0.016100
      9 NAO          0.3990    -0.6300    -0.8770 nc         1 C88      -0.523100
     10 C4           1.3190     1.4610    -0.5090 ca         1 C88       0.158500
     11 N3           2.1340     2.5240    -0.3680 nb         1 C88      -0.232000
     12 C2           1.5790     3.6120     0.2160 ca         1 C88       0.195900
     13 N1           0.3140     3.7180     0.6890 nb         1 C88      -0.313000
     14 C6          -0.4670     2.6400     0.5340 ca         1 C88       0.454900
     15 NAC         -1.7010     2.7370     1.0720 nv         1 C88      -1.065900
     16 C5           0.0170     1.5000    -0.0980 ca         1 C88      -0.383900
     17 CAV         -0.5300     0.1910    -0.3720 cd         1 C88       0.442500
     18 CAS         -1.9210    -0.2450    -0.1570 ca         1 C88      -0.139900
     19 CAG         -2.9990     0.5310    -0.6270 ca         1 C88      -0.077000
     20 CAR         -4.3290     0.0940    -0.4660 ca         1 C88      -0.111300
     21 CAB         -5.4770     0.9620    -0.9710 c3         1 C88      -0.034800
     22 CAU         -4.5870    -1.1490     0.1510 ca         1 C88       0.147100
     23 OAQ         -5.9010    -1.5550     0.2960 os         1 C88      -0.340100
     24 CAA         -6.2600    -2.8060     0.9090 c3         1 C88       0.147900
     25 CAE         -3.5060    -1.9460     0.5880 ca         1 C88      -0.201000
     26 CAD         -2.1850    -1.5000     0.4230 ca         1 C88      -0.044000
     27 H1           3.1370     0.0260     1.3420 hc         1 C88       0.050700
     28 H2           4.5840     0.6040     0.5220 hc         1 C88       0.050700
     29 H3           5.2180    -0.4950     2.6440 h1         1 C88       0.028700
     30 H4           4.3290    -1.9660     2.1980 h1         1 C88       0.028700
     31 H5           6.6600    -2.2250     1.7960 hn         1 C88       0.410000
     32 H7           6.7370    -2.8410    -0.5280 h1         1 C88       0.028700
     33 H8           5.2480    -3.3880     0.2720 h1         1 C88       0.028700
     34 H9           5.5630    -0.8970    -1.5100 hc         1 C88       0.050700
     35 H10          4.7000    -2.3740    -1.9270 hc         1 C88       0.050700
     36 H11          3.0340    -1.9780    -0.1300 hc         1 C88       0.060700
     37 H12          3.4310     0.5380    -1.8150 h1         1 C88       0.071700
     38 H13          2.6430    -0.9510    -2.3500 h1         1 C88       0.071700
     39 H14          2.2220     4.4830     0.3360 h5         1 C88       0.045100
     40 H15         -1.8790     3.5030     1.7140 hn         1 C88       0.501000
     41 H16         -2.2370     1.8860     1.2110 hn         1 C88       0.501000
     42 H17         -2.8000     1.4760    -1.1300 ha         1 C88       0.122000
     43 H18         -6.0590     0.4370    -1.7370 hc         1 C88       0.044033
     44 H19         -6.1590     1.2250    -0.1530 hc         1 C88       0.044033
     45 H20         -5.1180     1.8990    -1.4130 hc         1 C88       0.044033
     46 H21         -7.3500    -2.9230     0.9220 h1         1 C88       0.041700
     47 H22         -5.8340    -3.6500     0.3510 h1         1 C88       0.041700
     48 H23         -5.9000    -2.8500     1.9450 h1         1 C88       0.041700
     49 H24         -3.6700    -2.9140     1.0530 ha         1 C88       0.120000
     50 H25         -1.3610    -2.1290     0.7580 ha         1 C88       0.124000
@<TRIPOS>BOND
     1     1     2 1   
     2     1     6 1   
     3     1    27 1   
     4     1    28 1   
     5     2     3 1   
     6     2    29 1   
     7     2    30 1   
     8     3     4 1   
     9     3    31 1   
    10     4     5 1   
    11     4    32 1   
    12     4    33 1   
    13     5     6 1   
    14     5    34 1   
    15     5    35 1   
    16     6     7 1   
    17     6    36 1   
    18     7     8 1   
    19     7    37 1   
    20     7    38 1   
    21     8     9 1   
    22     8    10 1   
    23     9    17 2   
    24    10    11 ar  
    25    10    16 ar  
    26    11    12 ar  
    27    12    13 ar  
    28    12    39 1   
    29    13    14 ar  
    30    14    15 1   
    31    14    16 ar  
    32    15    40 1   
    33    15    41 1   
    34    16    17 1   
    35    17    18 1   
    36    18    19 ar  
    37    18    26 ar  
    38    19    20 ar  
    39    19    42 1   
    40    20    21 1   
    41    20    22 ar  
    42    21    43 1   
    43    21    44 1   
    44    21    45 1   
    45    22    23 1   
    46    22    25 ar  
    47    23    24 1   
    48    24    46 1   
    49    24    47 1   
    50    24    48 1   
    51    25    26 ar  
    52    25    49 1   
    53    26    50 1   
@<TRIPOS>SUBSTRUCTURE
     1 C88         1 TEMP              0 ****  ****    0 ROOT
