@<TRIPOS>MOLECULE
C88
   50    53     1     0     0
SMALL
abcg2


@<TRIPOS>ATOM
      1 CAJ          3.7140    -0.5110     0.9220 c6         1 C88      -0.072900
      2 CAH          4.3730    -1.5480     1.8210 c6         1 C88       0.161800
      3 NAP          5.6200    -1.9980     1.2300 n7         1 C88      -0.863400
      4 CAI          5.4060    -2.6390    -0.0550 c6         1 C88       0.161800
      5 CAK          4.7820    -1.6510    -1.0300 c6         1 C88      -0.072900
      6 CAY          3.4760    -1.0880    -0.4710 c6         1 C88      -0.080700
      7 CAL          2.8920    -0.0660    -1.4390 c3         1 C88       0.099600
      8 NAZ          1.6310     0.4730    -0.9840 na         1 C88      -0.016100
      9 NAO          0.5520    -0.3170    -0.8790 nc         1 C88      -0.523100
     10 C4           1.3660     1.7240    -0.5690 ca         1 C88       0.158500
     11 N3           2.2110     2.7590    -0.5320 nb         1 C88      -0.232000
     12 C2           1.6440     3.8450    -0.0500 ca         1 C88       0.195900
     13 N1           0.4010     4.0010     0.4060 nb         1 C88      -0.313000
     14 C6          -0.4320     2.9580     0.3790 ca         1 C88       0.454900
     15 NAC         -1.6620     3.1280     0.8700 nv         1 C88      -1.065900
     16 C5           0.0260     1.7390    -0.1700 ca         1 C88      -0.383900
     17 CAV         -0.4300     0.4110    -0.3990 cd         1 C88       0.442500
     18 CAS         -1.7560    -0.1710    -0.1690 ca         1 C88      -0.139900
     19 CAG         -2.9120     0.4900    -0.5940 ca         1 C88      -0.077000
     20 CAR         -4.1780    -0.0370    -0.4030 ca         1 C88      -0.111300
     21 CAB         -5.4020     0.6890    -0.8760 c3         1 C88      -0.034800
     22 CAU         -4.2900    -1.2830     0.2360 ca         1 C88       0.147100
     23 OAQ         -5.5420    -1.7470     0.3970 os         1 C88      -0.340100
     24 CAA         -5.7300    -2.9870     1.0490 c3         1 C88       0.147900
     25 CAE         -3.1490    -1.9620     0.6540 ca         1 C88      -0.201000
     26 CAD         -1.8930    -1.4070     0.4490 ca         1 C88      -0.044000
     27 H1           2.7730    -0.1850     1.3740 hc         1 C88       0.050700
     28 H2           4.3620     0.3690     0.8510 hc         1 C88       0.050700
     29 H3           4.5820    -1.1140     2.8010 h1         1 C88       0.028700
     30 H4           3.6600    -2.3750     1.9830 h1         1 C88       0.028700
     31 H5           6.0790    -2.6450     1.8570 hn         1 C88       0.410000
     32 H7           6.3660    -2.9860    -0.4420 h1         1 C88       0.028700
     33 H8           4.7530    -3.5250     0.0180 h1         1 C88       0.028700
     34 H9           5.4870    -0.8330    -1.2090 hc         1 C88       0.050700
     35 H10          4.6060    -2.1420    -1.9900 hc         1 C88       0.050700
     36 H11          2.7610    -1.9150    -0.3800 hc         1 C88       0.060700
     37 H12          3.5730     0.7780    -1.5600 h1         1 C88       0.071700
     38 H13          2.7440    -0.5150    -2.4240 h1         1 C88       0.071700
     39 H14          2.2680     4.7310    -0.0050 h5         1 C88       0.045100
     40 H15         -1.8840     3.9880     1.3430 hn         1 C88       0.501000
     41 H16         -2.2770     2.3460     1.0200 hn         1 C88       0.501000
     42 H17         -2.8240     1.4350    -1.1190 ha         1 C88       0.122000
     43 H18         -5.9690     0.0980    -1.5970 hc         1 C88       0.044033
     44 H19         -6.0770     0.9190    -0.0510 hc         1 C88       0.044033
     45 H20         -5.1310     1.6280    -1.3570 hc         1 C88       0.044033
     46 H21         -6.8030    -3.1620     1.0740 h1         1 C88       0.041700
     47 H22         -5.2510    -3.8090     0.5110 h1         1 C88       0.041700
     48 H23         -5.3520    -2.9690     2.0750 h1         1 C88       0.041700
     49 H24         -3.2170    -2.9220     1.1470 ha         1 C88       0.120000
     50 H25         -1.0170    -1.9420     0.7890 ha         1 C88       0.124000
@<TRIPOS>BOND
     1     1     2 1   
     2     1     6 1   
     3     1    27 1   
     4     1    28 1   
     5     2     3 1   
     6     2    29 1   
     7     2    30 1   
     8     3     4 1   
     9     3    31 1   
    10     4     5 1   
    11     4    32 1   
    12     4    33 1   
    13     5     6 1   
    14     5    34 1   
    15     5    35 1   
    16     6     7 1   
    17     6    36 1   
    18     7     8 1   
    19     7    37 1   
    20     7    38 1   
    21     8     9 1   
    22     8    10 1   
    23     9    17 2   
    24    10    11 ar  
    25    10    16 ar  
    26    11    12 ar  
    27    12    13 ar  
    28    12    39 1   
    29    13    14 ar  
    30    14    15 1   
    31    14    16 ar  
    32    15    40 1   
    33    15    41 1   
    34    16    17 1   
    35    17    18 1   
    36    18    19 ar  
    37    18    26 ar  
    38    19    20 ar  
    39    19    42 1   
    40    20    21 1   
    41    20    22 ar  
    42    21    43 1   
    43    21    44 1   
    44    21    45 1   
    45    22    23 1   
    46    22    25 ar  
    47    23    24 1   
    48    24    46 1   
    49    24    47 1   
    50    24    48 1   
    51    25    26 ar  
    52    25    49 1   
    53    26    50 1   
@<TRIPOS>SUBSTRUCTURE
     1 C88         1 TEMP              0 ****  ****    0 ROOT
