@<TRIPOS>MOLECULE
C89
   62    67     1     0     0
SMALL
bcc


@<TRIPOS>ATOM
      1 C1           3.3280    -1.5040    -0.5880 ca         1 C89      -0.094800
      2 C11          6.9580    -2.0560    -0.4910 c3         1 C89       0.035600
      3 C13          2.8370     1.4460     0.2000 ca         1 C89       0.556800
      4 C15          2.8940     3.7520     0.3310 ca         1 C89       0.442200
      5 C16          4.2670     3.8040     0.2220 ca         1 C89      -0.271300
      6 C17          4.9280     2.5930     0.1060 ca         1 C89      -0.078000
      7 C18          4.2490     1.3760     0.0920 ca         1 C89      -0.148300
      8 C19          5.0850     0.1920    -0.0210 cc         1 C89      -0.163000
      9 C2           3.4090    -2.8020    -1.0710 ca         1 C89      -0.112000
     10 C20          0.6830     0.6030     0.9350 c3         1 C89       0.102600
     11 C21         -0.4470     1.0980     0.0620 ca         1 C89      -0.103300
     12 C22         -1.7270     1.1280     0.6060 ca         1 C89      -0.091000
     13 C23         -2.8170     1.5490    -0.1470 ca         1 C89      -0.142600
     14 C24         -2.6230     1.9790    -1.4570 ca         1 C89      -0.105000
     15 C25         -1.3480     1.9690    -1.9990 ca         1 C89      -0.137000
     16 C26         -0.2670     1.5240    -1.2480 ca         1 C89      -0.087000
     17 C27         -4.1590     1.6320     0.5100 c          1 C89       0.682700
     18 C3           2.2980    -3.5540    -1.4020 ca         1 C89      -0.088000
     19 C30         -6.5520     1.1870     0.3990 c6         1 C89       0.095500
     20 C31         -7.0590    -0.1450     0.9220 c6         1 C89       0.137300
     21 C33         -5.6320    -1.2990    -0.5940 c6         1 C89       0.137300
     22 C34         -5.1010     0.0190    -1.1370 c6         1 C89       0.095500
     23 C35         -7.5210    -2.4210     0.3480 c3         1 C89       0.150100
     24 C4           1.0720    -2.9370    -1.2200 ca         1 C89      -0.105000
     25 C5           0.9750    -1.6440    -0.7110 ca         1 C89      -0.166000
     26 C6           2.1020    -0.8890    -0.3520 ca         1 C89       0.091800
     27 C7           4.6830    -1.0400    -0.3420 cd         1 C89       0.075700
     28 C9           4.8310    -3.1990    -1.0810 c          1 C89       0.315800
     29 N12          1.9590     0.3500     0.2830 na         1 C89      -0.242000
     30 N14          2.2210     2.6100     0.3130 nb         1 C89      -0.736000
     31 N29         -5.2020     1.0550    -0.1210 n          1 C89      -0.472800
     32 N32         -6.9910    -1.1580    -0.1130 n3         1 C89      -0.711600
     33 N8           5.5240    -2.1160    -0.6020 n          1 C89      -0.195400
     34 O10          5.3110    -4.2580    -1.4290 o          1 C89      -0.314000
     35 O28         -4.2720     2.2470     1.5640 o          1 C89      -0.596100
     36 H1           7.2560    -1.7990     0.5250 h1         1 C89       0.049367
     37 H2           7.3720    -3.0290    -0.7370 h1         1 C89       0.049367
     38 H3           7.3740    -1.3170    -1.1780 h1         1 C89       0.049367
     39 H4           2.3030     4.6550     0.4380 h4         1 C89       0.025100
     40 H5           4.8010     4.7420     0.2360 ha         1 C89       0.148000
     41 H6           6.0090     2.5800     0.0370 ha         1 C89       0.135000
     42 H7           6.1470     0.3760     0.0910 ha         1 C89       0.135000
     43 H8           0.8470     1.3230     1.7360 h1         1 C89       0.069200
     44 H9           0.3770    -0.3260     1.4230 h1         1 C89       0.069200
     45 H10         -1.8790     0.8000     1.6280 ha         1 C89       0.141000
     46 H11         -3.4610     2.3240    -2.0510 ha         1 C89       0.138000
     47 H12         -1.1910     2.3060    -3.0150 ha         1 C89       0.134000
     48 H13          0.7170     1.5100    -1.6970 ha         1 C89       0.140000
     49 H14          2.3800    -4.5680    -1.7700 ha         1 C89       0.157000
     50 H15         -7.1980     1.5290    -0.4150 h1         1 C89       0.064200
     51 H16         -6.5750     1.9370     1.1840 h1         1 C89       0.064200
     52 H17         -6.4770    -0.4320     1.8150 h1         1 C89       0.040700
     53 H18         -8.0980    -0.0270     1.2400 h1         1 C89       0.040700
     54 H19         -5.6070    -2.0390    -1.3970 h1         1 C89       0.040700
     55 H20         -4.9520    -1.6570     0.2000 h1         1 C89       0.040700
     56 H21         -4.0710    -0.1150    -1.4530 h1         1 C89       0.064200
     57 H22         -5.6810     0.3220    -2.0130 h1         1 C89       0.064200
     58 H23         -6.9640    -2.8350     1.2030 h1         1 C89       0.032367
     59 H24         -8.5620    -2.3020     0.6540 h1         1 C89       0.032367
     60 H25         -7.4910    -3.1560    -0.4570 h1         1 C89       0.032367
     61 H26          0.1570    -3.4610    -1.4620 ha         1 C89       0.137000
     62 H27         -0.0180    -1.2400    -0.5870 ha         1 C89       0.146000
@<TRIPOS>BOND
     1     1     9 ar  
     2     1    26 ar  
     3     1    27 1   
     4     2    33 1   
     5     2    36 1   
     6     2    37 1   
     7     2    38 1   
     8     3     7 ar  
     9     3    29 1   
    10     3    30 ar  
    11     4     5 ar  
    12     4    30 ar  
    13     4    39 1   
    14     5     6 ar  
    15     5    40 1   
    16     6     7 ar  
    17     6    41 1   
    18     7     8 1   
    19     8    27 2   
    20     8    42 1   
    21     9    18 ar  
    22     9    28 1   
    23    10    11 1   
    24    10    29 1   
    25    10    43 1   
    26    10    44 1   
    27    11    12 ar  
    28    11    16 ar  
    29    12    13 ar  
    30    12    45 1   
    31    13    14 ar  
    32    13    17 1   
    33    14    15 ar  
    34    14    46 1   
    35    15    16 ar  
    36    15    47 1   
    37    16    48 1   
    38    17    31 1   
    39    17    35 2   
    40    18    24 ar  
    41    18    49 1   
    42    19    20 1   
    43    19    31 1   
    44    19    50 1   
    45    19    51 1   
    46    20    32 1   
    47    20    52 1   
    48    20    53 1   
    49    21    22 1   
    50    21    32 1   
    51    21    54 1   
    52    21    55 1   
    53    22    31 1   
    54    22    56 1   
    55    22    57 1   
    56    23    32 1   
    57    23    58 1   
    58    23    59 1   
    59    23    60 1   
    60    24    25 ar  
    61    24    61 1   
    62    25    26 ar  
    63    25    62 1   
    64    26    29 1   
    65    27    33 1   
    66    28    33 1   
    67    28    34 2   
@<TRIPOS>SUBSTRUCTURE
     1 C89         1 TEMP              0 ****  ****    0 ROOT
