@<TRIPOS>MOLECULE
C89
   62    67     1     0     0
SMALL
No Charge or Current Charge


@<TRIPOS>ATOM
      1 C1           1.0400    -0.2750    -1.8290 ca         1 C89      -0.094800
      2 C11          0.5400    -2.8150     0.8280 c3         1 C89       0.064900
      3 C13          3.1060     1.7500    -0.9210 ca         1 C89       0.491500
      4 C15          5.3040     2.4440    -0.5270 ca         1 C89       0.376900
      5 C16          5.4890     1.4860     0.4730 ca         1 C89      -0.188000
      6 C17          4.4360     0.6190     0.7830 ca         1 C89      -0.060000
      7 C18          3.2180     0.7280     0.0810 ca         1 C89      -0.083000
      8 C19          2.1860    -0.2630     0.4570 cc         1 C89      -0.145000
      9 C2           0.2680    -1.1970    -2.5140 ca         1 C89      -0.112000
     10 C20          1.1460     3.2040    -1.3290 c3         1 C89       0.131900
     11 C21         -0.2920     2.9730    -0.8670 ca         1 C89      -0.103300
     12 C22         -0.5590     2.0700     0.1790 ca         1 C89      -0.073000
     13 C23         -1.8790     1.7820     0.5760 ca         1 C89      -0.142600
     14 C24         -2.9420     2.4830    -0.0370 ca         1 C89      -0.087000
     15 C25         -2.6810     3.4110    -1.0600 ca         1 C89      -0.119000
     16 C26         -1.3620     3.6460    -1.4840 ca         1 C89      -0.069000
     17 C27         -2.1060     0.7530     1.6620 c          1 C89       0.615700
     18 C3          -0.1520    -0.9710    -3.8310 ca         1 C89      -0.070000
     19 C30         -3.6210    -0.9640     2.7330 c6         1 C89       0.095500
     20 C31         -3.2380    -2.4380     2.4240 c6         1 C89       0.137300
     21 C33         -3.4770    -2.0020     0.0230 c6         1 C89       0.137300
     22 C34         -3.8460    -0.5210     0.3140 c6         1 C89       0.095500
     23 C35         -3.5230    -4.3240     0.8510 c3         1 C89       0.150100
     24 C4           0.2140     0.2500    -4.4370 ca         1 C89      -0.087000
     25 C5           0.9450     1.2230    -3.7090 ca         1 C89      -0.148000
     26 C6           1.3540     0.9650    -2.3800 ca         1 C89       0.091800
     27 C7           1.3320    -0.7830    -0.4980 cd         1 C89       0.075700
     28 C9          -0.0260    -2.3200    -1.5880 c          1 C89       0.315800
     29 N12          1.8990     1.9540    -1.5730 na         1 C89      -0.271300
     30 N14          4.1440     2.5790    -1.2010 nb         1 C89      -0.736000
     31 N29         -3.2650    -0.0530     1.6080 n          1 C89      -0.405800
     32 N32         -3.8430    -2.9110     1.1450 n3         1 C89      -0.711600
     33 N8           0.6050    -1.9690    -0.3790 n          1 C89      -0.224700
     34 O10         -0.6790    -3.3240    -1.8250 o          1 C89      -0.314000
     35 O28         -1.3280     0.6710     2.6060 o          1 C89      -0.596100
     36 H1           0.2890    -2.1960     1.6990 h1         1 C89       0.049367
     37 H2          -0.2320    -3.5870     0.7130 h1         1 C89       0.049367
     38 H3           1.5100    -3.3000     0.9920 h1         1 C89       0.049367
     39 H4           6.1070     3.1310    -0.7920 h4         1 C89       0.025100
     40 H5           6.4400     1.4180     0.9930 ha         1 C89       0.130000
     41 H6           4.5690    -0.1390     1.5540 ha         1 C89       0.117000
     42 H7           2.2560    -0.7680     1.4140 ha         1 C89       0.117000
     43 H8           1.1500     3.7990    -2.2520 h1         1 C89       0.069200
     44 H9           1.6660     3.7920    -0.5620 h1         1 C89       0.069200
     45 H10          0.2650     1.5620     0.6710 ha         1 C89       0.123000
     46 H11         -3.9690     2.3170     0.2830 ha         1 C89       0.120000
     47 H12         -3.5040     3.9440    -1.5300 ha         1 C89       0.116000
     48 H13         -1.1750     4.3540    -2.2900 ha         1 C89       0.122000
     49 H14         -0.7530    -1.7060    -4.3640 ha         1 C89       0.139000
     50 H15         -4.7050    -0.9060     2.9050 h1         1 C89       0.064200
     51 H16         -3.1330    -0.6460     3.6650 h1         1 C89       0.064200
     52 H17         -2.1420    -2.5130     2.3740 h1         1 C89       0.040700
     53 H18         -3.5680    -3.0720     3.2600 h1         1 C89       0.040700
     54 H19         -3.9790    -2.3150    -0.9040 h1         1 C89       0.040700
     55 H20         -2.3950    -2.0550    -0.1620 h1         1 C89       0.040700
     56 H21         -3.4940     0.0830    -0.5300 h1         1 C89       0.064200
     57 H22         -4.9390    -0.4220     0.3570 h1         1 C89       0.064200
     58 H23         -2.4410    -4.4610     0.7190 h1         1 C89       0.032367
     59 H24         -3.8560    -4.9760     1.6700 h1         1 C89       0.032367
     60 H25         -4.0240    -4.6520    -0.0690 h1         1 C89       0.032367
     61 H26         -0.1020     0.4620    -5.4560 ha         1 C89       0.119000
     62 H27          1.1650     2.1830    -4.1690 ha         1 C89       0.128000
@<TRIPOS>BOND
     1     1     9 ar  
     2     1    26 ar  
     3     1    27 1   
     4     2    33 1   
     5     2    36 1   
     6     2    37 1   
     7     2    38 1   
     8     3     7 ar  
     9     3    29 1   
    10     3    30 ar  
    11     4     5 ar  
    12     4    30 ar  
    13     4    39 1   
    14     5     6 ar  
    15     5    40 1   
    16     6     7 ar  
    17     6    41 1   
    18     7     8 1   
    19     8    27 2   
    20     8    42 1   
    21     9    18 ar  
    22     9    28 1   
    23    10    11 1   
    24    10    29 1   
    25    10    43 1   
    26    10    44 1   
    27    11    12 ar  
    28    11    16 ar  
    29    12    13 ar  
    30    12    45 1   
    31    13    14 ar  
    32    13    17 1   
    33    14    15 ar  
    34    14    46 1   
    35    15    16 ar  
    36    15    47 1   
    37    16    48 1   
    38    17    31 1   
    39    17    35 2   
    40    18    24 ar  
    41    18    49 1   
    42    19    20 1   
    43    19    31 1   
    44    19    50 1   
    45    19    51 1   
    46    20    32 1   
    47    20    52 1   
    48    20    53 1   
    49    21    22 1   
    50    21    32 1   
    51    21    54 1   
    52    21    55 1   
    53    22    31 1   
    54    22    56 1   
    55    22    57 1   
    56    23    32 1   
    57    23    58 1   
    58    23    59 1   
    59    23    60 1   
    60    24    25 ar  
    61    24    61 1   
    62    25    26 ar  
    63    25    62 1   
    64    26    29 1   
    65    27    33 1   
    66    28    33 1   
    67    28    34 2   
@<TRIPOS>SUBSTRUCTURE
     1 C89         1 TEMP              0 ****  ****    0 ROOT
