@<TRIPOS>MOLECULE
C8A
   36    37     1     0     0
SMALL
bcc


@<TRIPOS>ATOM
      1 C10         -2.4980    -1.2550     0.6440 ca         1 C8A      -0.324300
      2 C13         -5.0320     0.7350     0.8150 ca         1 C8A      -0.134500
      3 C15         -6.6080     1.2110    -0.9410 ca         1 C8A      -0.230000
      4 C17         -5.6240    -0.9770    -0.7490 ca         1 C8A      -0.134500
      5 O01          1.3730     2.4050     0.4510 o          1 C8A      -0.929667
      6 P02          2.7890     1.8290     0.2390 p5         1 C8A       1.150700
      7 O03          3.3640     2.1960    -1.1380 o          1 C8A      -0.929667
      8 O04          3.7240     2.1540     1.4160 o          1 C8A      -0.929667
      9 C05          2.5580    -0.0170     0.2780 c3         1 C8A      -0.042900
     10 N06          1.4480    -0.4500    -0.5590 nu         1 C8A      -0.487600
     11 C07          0.1830    -0.6810    -0.1600 ca         1 C8A       0.159600
     12 C08         -0.3370    -0.2120     1.0630 ca         1 C8A      -0.207000
     13 C09         -1.6360    -0.5080     1.4430 ca         1 C8A      -0.094000
     14 C11         -3.9280    -1.5200     1.0440 c3         1 C8A       0.080200
     15 C12         -4.8890    -0.5770     0.3640 ca         1 C8A      -0.069300
     16 C14         -5.8830     1.6210     0.1720 ca         1 C8A      -0.142500
     17 C16         -6.4760    -0.0920    -1.3990 ca         1 C8A      -0.142500
     18 C18         -1.9930    -1.7020    -0.5780 ca         1 C8A      -0.094000
     19 C19         -0.6970    -1.4320    -0.9730 ca         1 C8A      -0.207000
     20 P20          3.9960    -1.1260    -0.2020 p5         1 C8A       1.150700
     21 O21          3.8260    -1.3160    -1.7260 o          1 C8A      -0.929667
     22 O22          5.3010    -0.4330     0.1950 o          1 C8A      -0.929667
     23 O23          3.7580    -2.4360     0.5730 o          1 C8A      -0.929667
     24 H1          -4.4700     1.0650     1.6820 ha         1 C8A       0.117000
     25 H2          -7.2750     1.9010    -1.4430 ha         1 C8A       0.078000
     26 H3          -5.5320    -1.9950    -1.1110 ha         1 C8A       0.117000
     27 H6           2.3160    -0.2700     1.3190 h1         1 C8A       0.041700
     28 H7           1.7590    -0.8990    -1.4100 hn         1 C8A       0.458800
     29 H8           0.2720     0.4300     1.6810 ha         1 C8A       0.134500
     30 H9          -1.9940    -0.1280     2.3950 ha         1 C8A       0.054500
     31 H10         -4.2020    -2.5500     0.8010 hc         1 C8A      -0.004300
     32 H11         -4.0280    -1.4200     2.1280 hc         1 C8A      -0.004300
     33 H12         -5.9820     2.6350     0.5390 ha         1 C8A       0.084500
     34 H13         -7.0370    -0.4240    -2.2640 ha         1 C8A       0.084500
     35 H14         -2.6290    -2.2850    -1.2380 ha         1 C8A       0.054500
     36 H15         -0.3400    -1.8150    -1.9240 ha         1 C8A       0.134500
@<TRIPOS>BOND
     1     1    13 ar  
     2     1    14 1   
     3     1    18 ar  
     4     2    15 ar  
     5     2    16 ar  
     6     2    24 1   
     7     3    16 ar  
     8     3    17 ar  
     9     3    25 1   
    10     4    15 ar  
    11     4    17 ar  
    12     4    26 1   
    13     5     6 1   
    14     6     7 1   
    15     6     8 1   
    16     6     9 1   
    17     9    10 1   
    18     9    20 1   
    19     9    27 1   
    20    10    11 1   
    21    10    28 1   
    22    11    12 ar  
    23    11    19 ar  
    24    12    13 ar  
    25    12    29 1   
    26    13    30 1   
    27    14    15 1   
    28    14    31 1   
    29    14    32 1   
    30    16    33 1   
    31    17    34 1   
    32    18    19 ar  
    33    18    35 1   
    34    19    36 1   
    35    20    21 1   
    36    20    22 1   
    37    20    23 1   
@<TRIPOS>SUBSTRUCTURE
     1 C8A         1 TEMP              0 ****  ****    0 ROOT
