@<TRIPOS>MOLECULE
C8A
   36    37     1     0     0
SMALL
No Charge or Current Charge


@<TRIPOS>ATOM
      1 C10         -2.5970    -1.3960     0.6090 ca         1 C8A      -0.324300
      2 C13         -5.1760     0.7250     1.0360 ca         1 C8A      -0.116500
      3 C15         -6.5870     1.5000    -0.7900 ca         1 C8A      -0.212000
      4 C17         -5.5470    -0.6980    -0.9010 ca         1 C8A      -0.116500
      5 O01          1.2660     2.2020    -0.3840 o          1 C8A      -0.929667
      6 P02          2.6680     1.7200    -0.1900 p5         1 C8A       1.308500
      7 O03          3.4350     2.0320    -1.4330 o          1 C8A      -0.929667
      8 O04          3.2160     2.4650     0.9830 o          1 C8A      -0.929667
      9 C05          2.5720    -0.0980     0.1850 c3         1 C8A      -0.358500
     10 N06          1.4800    -0.9800    -0.4420 nu         1 C8A      -0.681200
     11 C07          0.1280    -1.0850    -0.0830 ca         1 C8A       0.298000
     12 C08         -0.3800    -0.5050     1.0960 ca         1 C8A      -0.189000
     13 C09         -1.7350    -0.6570     1.4390 ca         1 C8A      -0.076000
     14 C11         -4.0670    -1.5670     0.9820 c3         1 C8A       0.080200
     15 C12         -4.9480    -0.4890     0.3580 ca         1 C8A      -0.069300
     16 C14         -5.9930     1.7160     0.4640 ca         1 C8A      -0.124500
     17 C16         -6.3640     0.2940    -1.4730 ca         1 C8A      -0.124500
     18 C18         -2.0930    -1.9760    -0.5690 ca         1 C8A      -0.076000
     19 C19         -0.7390    -1.8220    -0.9090 ca         1 C8A      -0.189000
     20 P20          4.3270    -0.6630    -0.0140 p5         1 C8A       1.308500
     21 O21          4.5800    -0.9760    -1.4540 o          1 C8A      -0.929667
     22 O22          5.3640     0.2620     0.5270 o          1 C8A      -0.929667
     23 O23          4.4250    -1.9590     0.7240 o          1 C8A      -0.929667
     24 H1          -4.7180     0.9000     2.0060 ha         1 C8A       0.099000
     25 H2          -7.2190     2.2660    -1.2320 ha         1 C8A       0.060000
     26 H3          -5.3770    -1.6290    -1.4370 ha         1 C8A       0.099000
     27 H6           2.4520    -0.1330     1.2720 h1         1 C8A       0.041700
     28 H7           1.7380    -1.4870    -1.2940 hn         1 C8A       0.514000
     29 H8           0.2700     0.0660     1.7500 ha         1 C8A       0.116500
     30 H9          -2.1110    -0.2010     2.3510 ha         1 C8A       0.036500
     31 H10         -4.4160    -2.5600     0.6700 hc         1 C8A      -0.004300
     32 H11         -4.1800    -1.5530     2.0730 hc         1 C8A      -0.004300
     33 H12         -6.1640     2.6500     0.9940 ha         1 C8A       0.066500
     34 H13         -6.8220     0.1250    -2.4450 ha         1 C8A       0.066500
     35 H14         -2.7480    -2.5490    -1.2210 ha         1 C8A       0.036500
     36 H15         -0.3640    -2.2810    -1.8200 ha         1 C8A       0.116500
@<TRIPOS>BOND
     1     1    13 ar  
     2     1    14 1   
     3     1    18 ar  
     4     2    15 ar  
     5     2    16 ar  
     6     2    24 1   
     7     3    16 ar  
     8     3    17 ar  
     9     3    25 1   
    10     4    15 ar  
    11     4    17 ar  
    12     4    26 1   
    13     5     6 1   
    14     6     7 1   
    15     6     8 1   
    16     6     9 1   
    17     9    10 1   
    18     9    20 1   
    19     9    27 1   
    20    10    11 1   
    21    10    28 1   
    22    11    12 ar  
    23    11    19 ar  
    24    12    13 ar  
    25    12    29 1   
    26    13    30 1   
    27    14    15 1   
    28    14    31 1   
    29    14    32 1   
    30    16    33 1   
    31    17    34 1   
    32    18    19 ar  
    33    18    35 1   
    34    19    36 1   
    35    20    21 1   
    36    20    22 1   
    37    20    23 1   
@<TRIPOS>SUBSTRUCTURE
     1 C8A         1 TEMP              0 ****  ****    0 ROOT
