@<TRIPOS>MOLECULE
C8B
   53    56     1     0     0
SMALL
bcc


@<TRIPOS>ATOM
      1 C1          -1.6050    -0.3320    -1.2790 c          1 C8B       0.662500
      2 C2          -2.4380    -1.2850    -0.4010 c6         1 C8B       0.269200
      3 C3          -2.9060    -0.5670     0.8810 c3         1 C8B      -0.027100
      4 C4          -3.7260     0.6680     0.6410 ca         1 C8B      -0.077300
      5 C5          -5.1010     0.5900     0.4340 ca         1 C8B      -0.106500
      6 C6          -5.8510     1.7370     0.2180 ca         1 C8B      -0.128500
      7 C12          0.8900    -0.6360     1.0700 c3         1 C8B      -0.012200
      8 C13          1.7120     0.6010     0.9180 cc         1 C8B      -0.129400
      9 C14          3.0380     0.8270     0.4120 ca         1 C8B      -0.037800
     10 C11          0.4400    -1.2470    -0.2750 c6         1 C8B       0.036700
     11 O5          -3.5790    -1.6480    -1.0910 oh         1 C8B      -0.566800
     12 O4           4.7120    -1.9880    -0.8790 o          1 C8B      -0.204000
     13 C8          -3.8680     3.0740     0.4180 ca         1 C8B      -0.128500
     14 C9          -3.1230     1.9230     0.6350 ca         1 C8B      -0.106500
     15 C10         -0.3290    -2.5220     0.0080 c          1 C8B       0.697500
     16 C15          4.1180     0.0700    -0.0820 ca         1 C8B      -0.134200
     17 C16          5.2530     0.6710    -0.5940 ca         1 C8B      -0.084000
     18 C17          5.3780     2.0600    -0.6010 ca         1 C8B      -0.128000
     19 N4           4.1250    -1.3740    -0.0160 no         1 C8B       0.307200
     20 O3           3.5650    -1.9010     0.9200 o          1 C8B      -0.204000
     21 C18          4.3630     2.8580    -0.1150 ca         1 C8B      -0.100000
     22 C19          3.2170     2.2370     0.3650 ca         1 C8B      -0.069200
     23 N3           2.0830     2.8140     0.8430 na         1 C8B      -0.158400
     24 C20          1.1940     1.8460     1.1630 cd         1 C8B      -0.089100
     25 N1          -0.2750    -0.3160    -1.1230 n          1 C8B      -0.465800
     26 O1          -2.1810     0.3840    -2.0780 o          1 C8B      -0.606500
     27 N2          -1.6710    -2.4820    -0.0470 n          1 C8B      -0.512800
     28 C7          -5.2370     2.9830     0.2050 ca         1 C8B      -0.120000
     29 H1          -3.4840    -1.2910     1.4620 hc         1 C8B       0.061200
     30 H2          -2.0340    -0.3190     1.4890 hc         1 C8B       0.061200
     31 H3          -5.5930    -0.3750     0.4480 ha         1 C8B       0.125000
     32 H4          -6.9200     1.6590     0.0640 ha         1 C8B       0.128000
     33 H5           1.4080    -1.4050     1.6390 hc         1 C8B       0.073700
     34 H6           0.0020    -0.3720     1.6470 hc         1 C8B       0.073700
     35 H7           1.3240    -1.5660    -0.8300 h1         1 C8B       0.089700
     36 H8          -3.3540    -1.9370    -1.9840 ho         1 C8B       0.429000
     37 H9           0.2410     0.3840    -3.0410 h1         1 C8B       0.046700
     38 H10          0.3140     1.6100    -1.7640 h1         1 C8B       0.046700
     39 H11          1.5500     0.3620    -1.8600 h1         1 C8B       0.046700
     40 H12         -3.3790     4.0390     0.4200 ha         1 C8B       0.128000
     41 H13         -2.0560     2.0060     0.8040 ha         1 C8B       0.125000
     42 H14          6.0700     0.0670    -0.9620 ha         1 C8B       0.166000
     43 H15          6.2830     2.5070    -0.9850 ha         1 C8B       0.147000
     44 H16         -2.3590    -4.4540    -0.3570 h1         1 C8B       0.049033
     45 H17         -1.9780    -4.0460     1.3210 h1         1 C8B       0.049033
     46 H18         -3.4400    -3.4180     0.5680 h1         1 C8B       0.049033
     47 H19          4.4490     3.9370    -0.1140 ha         1 C8B       0.142000
     48 H20          1.9220     3.8040     0.9320 hn         1 C8B       0.310700
     49 H21          0.2200     2.1020     1.5510 h4         1 C8B       0.171000
     50 H22         -5.8230     3.8780     0.0380 ha         1 C8B       0.129000
     51 C21          0.4910     0.5610    -1.9950 c3         1 C8B       0.092300
     52 O2           0.2880    -3.5240     0.3320 o          1 C8B      -0.605500
     53 C22         -2.3990    -3.6650     0.3940 c3         1 C8B       0.086300
@<TRIPOS>BOND
     1     1     2 1   
     2     1    25 1   
     3     1    26 2   
     4     2     3 1   
     5     2    11 1   
     6     2    27 1   
     7     3     4 1   
     8     3    29 1   
     9     3    30 1   
    10     4     5 ar  
    11     4    14 ar  
    12     5     6 ar  
    13     5    31 1   
    14     6    28 ar  
    15     6    32 1   
    16     7     8 1   
    17     7    10 1   
    18     7    33 1   
    19     7    34 1   
    20     8     9 1   
    21     8    24 2   
    22     9    16 ar  
    23     9    22 ar  
    24    10    15 1   
    25    10    25 1   
    26    10    35 1   
    27    11    36 1   
    28    12    19 1   
    29    13    14 ar  
    30    13    28 ar  
    31    13    40 1   
    32    14    41 1   
    33    15    27 1   
    34    15    52 2   
    35    16    17 ar  
    36    16    19 1   
    37    17    18 ar  
    38    17    42 1   
    39    18    21 ar  
    40    18    43 1   
    41    19    20 1   
    42    21    22 ar  
    43    21    47 1   
    44    22    23 1   
    45    23    24 1   
    46    23    48 1   
    47    24    49 1   
    48    25    51 1   
    49    27    53 1   
    50    28    50 1   
    51    37    51 1   
    52    38    51 1   
    53    39    51 1   
    54    44    53 1   
    55    45    53 1   
    56    46    53 1   
@<TRIPOS>SUBSTRUCTURE
     1 C8B         1 TEMP              0 ****  ****    0 ROOT
