@<TRIPOS>MOLECULE
C8B
   53    56     1     0     0
SMALL
No Charge or Current Charge


@<TRIPOS>ATOM
      1 C1          -1.6540    -0.2520    -1.2620 c          1 C8B       0.520000
      2 C2          -2.4410    -1.3360    -0.4180 c6         1 C8B       0.292400
      3 C3          -3.0110    -0.6370     0.8630 c3         1 C8B      -0.027100
      4 C4          -3.9000     0.5820     0.6160 ca         1 C8B      -0.077300
      5 C5          -5.2790     0.4210     0.3720 ca         1 C8B      -0.088500
      6 C6          -6.0960     1.5430     0.1510 ca         1 C8B      -0.110500
      7 C12          0.9810    -0.4650     1.0580 c3         1 C8B      -0.012200
      8 C13          1.8220     0.7790     0.8950 cc         1 C8B      -0.129400
      9 C14          3.1750     0.9070     0.3920 ca         1 C8B      -0.037800
     10 C11          0.5130    -1.1300    -0.2770 c6         1 C8B       0.036700
     11 O5          -3.5520    -1.7920    -1.2110 oh         1 C8B      -0.629000
     12 O4           4.0470    -2.1850    -0.9140 o          1 C8B      -0.394000
     13 C8          -4.1700     3.0020     0.4290 ca         1 C8B      -0.110500
     14 C9          -3.3520     1.8800     0.6500 ca         1 C8B      -0.088500
     15 C10         -0.2130    -2.4550     0.0750 c          1 C8B       0.555000
     16 C15          4.1410    -0.0470    -0.0060 ca         1 C8B      -0.134200
     17 C16          5.3730     0.4270    -0.5190 ca         1 C8B      -0.066000
     18 C17          5.6280     1.8130    -0.6080 ca         1 C8B      -0.110000
     19 N4           3.9280    -1.5080     0.1150 no         1 C8B       0.687200
     20 O3           3.9020    -1.9870     1.2540 o          1 C8B      -0.394000
     21 C18          4.6580     2.7410    -0.1830 ca         1 C8B      -0.082000
     22 C19          3.4420     2.2510     0.3120 ca         1 C8B      -0.069200
     23 N3           2.3760     3.0020     0.7680 na         1 C8B      -0.208700
     24 C20          1.3740     2.0760     1.1280 cd         1 C8B      -0.139100
     25 N1          -0.2500    -0.1910    -1.1480 n          1 C8B      -0.398800
     26 O1          -2.2450     0.4750    -2.0560 o          1 C8B      -0.531000
     27 N2          -1.6220    -2.5110    -0.0030 n          1 C8B      -0.445800
     28 C7          -5.5420     2.8340     0.1780 ca         1 C8B      -0.102000
     29 H1          -3.5770    -1.3680     1.4520 hc         1 C8B       0.061200
     30 H2          -2.1810    -0.3440     1.5140 hc         1 C8B       0.061200
     31 H3          -5.7190    -0.5740     0.3530 ha         1 C8B       0.107000
     32 H4          -7.1590     1.4120    -0.0390 ha         1 C8B       0.110000
     33 H5           1.5230    -1.1910     1.6730 hc         1 C8B       0.073700
     34 H6           0.1010    -0.2080     1.6560 hc         1 C8B       0.073700
     35 H7           1.4050    -1.4460    -0.8320 h1         1 C8B       0.089700
     36 H8          -3.8550    -0.9980    -1.7040 ho         1 C8B       0.468000
     37 H9           0.2120     0.6410    -3.0470 h1         1 C8B       0.046700
     38 H10          0.3100     1.7840    -1.6740 h1         1 C8B       0.046700
     39 H11          1.5890     0.5640    -1.9210 h1         1 C8B       0.046700
     40 H12         -3.7400     4.0000     0.4520 ha         1 C8B       0.110000
     41 H13         -2.2910     2.0220     0.8420 ha         1 C8B       0.107000
     42 H14          6.1380    -0.2780    -0.8380 ha         1 C8B       0.148000
     43 H15          6.5800     2.1660    -0.9990 ha         1 C8B       0.129000
     44 H16         -2.2330    -4.4930    -0.4590 h1         1 C8B       0.049033
     45 H17         -1.8540    -4.2100     1.2650 h1         1 C8B       0.049033
     46 H18         -3.3740    -3.5970     0.5820 h1         1 C8B       0.049033
     47 H19          4.8480     3.8100    -0.2420 ha         1 C8B       0.124000
     48 H20          2.3210     4.0160     0.8230 hn         1 C8B       0.361000
     49 H21          0.4050     2.4050     1.4940 h4         1 C8B       0.221000
     50 H22         -6.1750     3.7020     0.0080 ha         1 C8B       0.111000
     51 C21          0.5120     0.7550    -1.9970 c3         1 C8B       0.092300
     52 O2           0.4370    -3.4440     0.3860 o          1 C8B      -0.530000
     53 C22         -2.3130    -3.7760     0.3670 c3         1 C8B       0.086300
@<TRIPOS>BOND
     1     1     2 1   
     2     1    25 1   
     3     1    26 2   
     4     2     3 1   
     5     2    11 1   
     6     2    27 1   
     7     3     4 1   
     8     3    29 1   
     9     3    30 1   
    10     4     5 ar  
    11     4    14 ar  
    12     5     6 ar  
    13     5    31 1   
    14     6    28 ar  
    15     6    32 1   
    16     7     8 1   
    17     7    10 1   
    18     7    33 1   
    19     7    34 1   
    20     8     9 1   
    21     8    24 2   
    22     9    16 ar  
    23     9    22 ar  
    24    10    15 1   
    25    10    25 1   
    26    10    35 1   
    27    11    36 1   
    28    12    19 1   
    29    13    14 ar  
    30    13    28 ar  
    31    13    40 1   
    32    14    41 1   
    33    15    27 1   
    34    15    52 2   
    35    16    17 ar  
    36    16    19 1   
    37    17    18 ar  
    38    17    42 1   
    39    18    21 ar  
    40    18    43 1   
    41    19    20 1   
    42    21    22 ar  
    43    21    47 1   
    44    22    23 1   
    45    23    24 1   
    46    23    48 1   
    47    24    49 1   
    48    25    51 1   
    49    27    53 1   
    50    28    50 1   
    51    37    51 1   
    52    38    51 1   
    53    39    51 1   
    54    44    53 1   
    55    45    53 1   
    56    46    53 1   
@<TRIPOS>SUBSTRUCTURE
     1 C8B         1 TEMP              0 ****  ****    0 ROOT
