@<TRIPOS>MOLECULE
C8C
   33    35     1     0     0
SMALL
No Charge or Current Charge


@<TRIPOS>ATOM
      1 N1          66.3450    49.4590     6.1230 nv         1 C8C      -1.068200
      2 C2          67.4170    49.1180     6.8110 cc         1 C8C       0.734800
      3 C4          68.5650    47.3430     7.8320 c          1 C8C       0.582200
      4 C5          69.5200    48.3770     8.1700 cc         1 C8C      -0.408200
      5 C6          69.3840    49.7030     7.8160 cd         1 C8C       0.236400
      6 C7          70.3960    50.7670     8.1700 c3         1 C8C      -0.029200
      7 C8          71.4450    50.9930     7.0590 c3         1 C8C      -0.022100
      8 C9          72.2670    49.7420     6.7710 ca         1 C8C      -0.063300
      9 C10         73.3460    49.3900     7.6210 ca         1 C8C      -0.139000
     10 C11         74.1040    48.2250     7.3760 ca         1 C8C      -0.058000
     11 C12         73.7510    47.4390     6.2720 ca         1 C8C      -0.098800
     12 C13         74.3170    46.2220     5.7780 cc         1 C8C      -0.236200
     13 C14         73.5830    45.8600     4.6540 cd         1 C8C      -0.165100
     14 N15         72.5700    46.8280     4.4380 na         1 C8C      -0.227700
     15 C16         72.7140    47.7670     5.4470 ca         1 C8C      -0.047200
     16 C17         71.9460    48.9190     5.6670 ca         1 C8C      -0.121000
     17 N18         68.2490    50.0840     7.0950 nd         1 C8C      -0.735300
     18 N3          67.5280    47.8260     7.1350 ns         1 C8C      -0.442400
     19 O5          68.6710    46.1690     8.1380 o          1 C8C      -0.555000
     20 H1N1        66.4080    50.3990     5.7530 hn         1 C8C       0.507500
     21 H1N2        65.9850    48.7720     5.4730 hn         1 C8C       0.507500
     22 H3          66.8020    47.1800     6.8790 hn         1 C8C       0.318500
     23 H5          70.3840    48.0340     8.7240 ha         1 C8C       0.217000
     24 H7C1        69.8840    51.7170     8.3700 hc         1 C8C       0.058200
     25 H7C2        70.9110    50.4990     9.1000 hc         1 C8C       0.058200
     26 H8C1        70.9350    51.3340     6.1500 hc         1 C8C       0.053200
     27 H8C2        72.1080    51.8130     7.3600 hc         1 C8C       0.053200
     28 H10         73.5940    50.0180     8.4740 ha         1 C8C       0.107000
     29 H17         71.1170    49.1660     5.0070 ha         1 C8C       0.112000
     30 H11         74.9320    47.9460     8.0230 ha         1 C8C       0.114000
     31 H13         75.1600    45.6720     6.1910 ha         1 C8C       0.204000
     32 H14         73.7040    44.9970     4.0010 h4         1 C8C       0.209000
     33 H15         71.8790    46.8340     3.6940 hn         1 C8C       0.345000
@<TRIPOS>BOND
     1     1     2 1   
     2     1    20 1   
     3     1    21 1   
     4     2    17 2   
     5     2    18 1   
     6     3     4 1   
     7     3    18 1   
     8     3    19 2   
     9     4     5 2   
    10     4    23 1   
    11     5     6 1   
    12     5    17 1   
    13     6     7 1   
    14     6    24 1   
    15     6    25 1   
    16     7     8 1   
    17     7    26 1   
    18     7    27 1   
    19     8     9 ar  
    20     8    16 ar  
    21     9    10 ar  
    22     9    28 1   
    23    10    11 ar  
    24    10    30 1   
    25    11    12 1   
    26    11    15 ar  
    27    12    13 2   
    28    12    31 1   
    29    13    14 1   
    30    13    32 1   
    31    14    15 1   
    32    14    33 1   
    33    15    16 ar  
    34    16    29 1   
    35    18    22 1   
@<TRIPOS>SUBSTRUCTURE
     1 C8C         1 TEMP              0 ****  ****    0 ROOT
