@<TRIPOS>MOLECULE
C8C
   33    35     1     0     0
SMALL
bcc


@<TRIPOS>ATOM
      1 N1          66.8820    49.2790     5.5720 nv         1 C8C      -0.957800
      2 C2          67.7480    49.0250     6.5560 cc         1 C8C       0.734800
      3 C4          68.5320    47.4030     8.1770 c          1 C8C       0.724700
      4 C5          69.4480    48.4200     8.5770 cc         1 C8C      -0.358200
      5 C6          69.4430    49.6290     7.9410 cd         1 C8C       0.236400
      6 C7          70.4260    50.6970     8.3080 c3         1 C8C      -0.029200
      7 C8          71.4020    50.9920     7.1570 c3         1 C8C      -0.022100
      8 C9          72.2060    49.7820     6.7720 ca         1 C8C      -0.063300
      9 C10         73.3350    49.4220     7.5350 ca         1 C8C      -0.157000
     10 C11         74.0720    48.2890     7.2610 ca         1 C8C      -0.076000
     11 C12         73.6860    47.4690     6.1930 ca         1 C8C      -0.098800
     12 C13         74.1830    46.2520     5.6280 cc         1 C8C      -0.186200
     13 C14         73.3620    45.9410     4.5840 cd         1 C8C      -0.115100
     14 N15         72.3870    46.8920     4.4650 na         1 C8C      -0.177400
     15 C16         72.5560    47.8390     5.4330 ca         1 C8C      -0.047200
     16 C17         71.8140    48.9860     5.7110 ca         1 C8C      -0.139000
     17 N18         68.5980    49.9470     6.9360 nd         1 C8C      -0.735300
     18 N3          67.6980    47.8000     7.1350 ns         1 C8C      -0.509400
     19 O5          68.4240    46.2740     8.6430 o          1 C8C      -0.630500
     20 H1N1        66.9270    50.1660     5.1000 hn         1 C8C       0.452300
     21 H1N2        66.2540    48.5830     5.2120 hn         1 C8C       0.452300
     22 H3          67.0230    47.1210     6.8060 hn         1 C8C       0.318500
     23 H5          70.1550    48.2120     9.3670 ha         1 C8C       0.167000
     24 H7C1        69.8830    51.6140     8.5520 hc         1 C8C       0.058200
     25 H7C2        70.9800    50.4010     9.1990 hc         1 C8C       0.058200
     26 H8C1        70.8370    51.3610     6.3000 hc         1 C8C       0.053200
     27 H8C2        72.0640    51.8020     7.4720 hc         1 C8C       0.053200
     28 H10         73.6320    50.0590     8.3610 ha         1 C8C       0.125000
     29 H17         70.9440    49.2470     5.1190 ha         1 C8C       0.130000
     30 H11         74.9380    48.0400     7.8620 ha         1 C8C       0.132000
     31 H13         75.0370    45.6810     5.9570 ha         1 C8C       0.154000
     32 H14         73.3920    45.1030     3.9070 h4         1 C8C       0.159000
     33 H15         71.6560    46.8850     3.7740 hn         1 C8C       0.294700
@<TRIPOS>BOND
     1     1     2 1   
     2     1    20 1   
     3     1    21 1   
     4     2    17 2   
     5     2    18 1   
     6     3     4 1   
     7     3    18 1   
     8     3    19 2   
     9     4     5 2   
    10     4    23 1   
    11     5     6 1   
    12     5    17 1   
    13     6     7 1   
    14     6    24 1   
    15     6    25 1   
    16     7     8 1   
    17     7    26 1   
    18     7    27 1   
    19     8     9 ar  
    20     8    16 ar  
    21     9    10 ar  
    22     9    28 1   
    23    10    11 ar  
    24    10    30 1   
    25    11    12 1   
    26    11    15 ar  
    27    12    13 2   
    28    12    31 1   
    29    13    14 1   
    30    13    32 1   
    31    14    15 1   
    32    14    33 1   
    33    15    16 ar  
    34    16    29 1   
    35    18    22 1   
@<TRIPOS>SUBSTRUCTURE
     1 C8C         1 TEMP              0 ****  ****    0 ROOT
