@<TRIPOS>MOLECULE
C8E
   55    54     1     0     0
SMALL
No Charge or Current Charge


@<TRIPOS>ATOM
      1 C1         -24.3570    41.9350    44.2140 c3         1 C8E      -0.090100
      2 C2         -23.3610    42.0100    43.0410 c3         1 C8E      -0.077400
      3 C3         -23.4350    43.3520    42.2730 c3         1 C8E      -0.075400
      4 C4         -22.4530    43.4700    41.0780 c3         1 C8E      -0.072400
      5 C5         -23.0150    43.0540    39.6940 c3         1 C8E      -0.074400
      6 C6         -23.4530    41.5740    39.5710 c3         1 C8E      -0.074400
      7 C7         -23.8950    41.1610    38.1470 c3         1 C8E      -0.110400
      8 C8         -22.7540    41.1910    37.1010 c3         1 C8E       0.151600
      9 O9         -23.1750    40.5270    35.8860 os         1 C8E      -0.454000
     10 C10        -24.2380    41.1370    35.1030 c3         1 C8E       0.125600
     11 C11        -23.7900    42.4930    34.4950 c3         1 C8E       0.132600
     12 O12        -22.7620    42.2420    33.5120 os         1 C8E      -0.464000
     13 C13        -22.2350    43.4030    32.8260 c3         1 C8E       0.133600
     14 C14        -21.3030    44.2420    33.7510 c3         1 C8E       0.138600
     15 O15        -19.9870    43.6440    33.8890 os         1 C8E      -0.457000
     16 C16        -19.8960    42.4120    34.6470 c3         1 C8E       0.137600
     17 C17        -19.7880    41.1850    33.6960 c3         1 C8E       0.130600
     18 O18        -18.4090    40.9480    33.3050 os         1 C8E      -0.438000
     19 C19        -17.7450    41.9580    32.4980 c3         1 C8E       0.163600
     20 C20        -18.4290    42.1230    31.1070 c3         1 C8E       0.125600
     21 O21        -18.4230    40.8950    30.3550 oh         1 C8E      -0.707000
     22 H11        -24.2630    40.9730    44.7340 hc         1 C8E       0.031700
     23 H12        -24.1650    42.7360    44.9380 hc         1 C8E       0.031700
     24 H13        -25.3880    42.0310    43.8540 hc         1 C8E       0.031700
     25 H21        -22.3450    41.8740    43.4310 hc         1 C8E       0.036700
     26 H22        -23.5520    41.1700    42.3660 hc         1 C8E       0.036700
     27 H31        -24.4610    43.5280    41.9250 hc         1 C8E       0.037700
     28 H32        -23.2090    44.1590    42.9820 hc         1 C8E       0.037700
     29 H41        -22.1420    44.5190    41.0010 hc         1 C8E       0.038200
     30 H42        -21.5390    42.9020    41.2910 hc         1 C8E       0.038200
     31 H51        -23.8650    43.7000    39.4450 hc         1 C8E       0.034200
     32 H52        -22.2390    43.2630    38.9490 hc         1 C8E       0.034200
     33 H61        -22.6370    40.9190    39.9020 hc         1 C8E       0.043200
     34 H62        -24.2990    41.3980    40.2440 hc         1 C8E       0.043200
     35 H71        -24.3040    40.1440    38.1930 hc         1 C8E       0.047200
     36 H72        -24.7110    41.8220    37.8310 hc         1 C8E       0.047200
     37 H81        -22.4410    42.2240    36.9100 h1         1 C8E       0.041200
     38 H82        -21.8860    40.6620    37.5170 h1         1 C8E       0.041200
     39 H101       -24.5240    40.4690    34.2810 h1         1 C8E       0.051700
     40 H102       -25.1380    41.2930    35.7100 h1         1 C8E       0.051700
     41 H111       -24.6600    42.9620    34.0170 h1         1 C8E       0.042200
     42 H112       -23.4470    43.1690    35.2860 h1         1 C8E       0.042200
     43 H131       -21.6670    43.0950    31.9390 h1         1 C8E       0.040200
     44 H132       -23.0580    44.0400    32.4770 h1         1 C8E       0.040200
     45 H141       -21.1950    45.2330    33.2920 h1         1 C8E       0.051700
     46 H142       -21.7670    44.4010    34.7320 h1         1 C8E       0.051700
     47 H161       -19.0130    42.4320    35.2990 h1         1 C8E       0.047200
     48 H162       -20.7700    42.2900    35.2980 h1         1 C8E       0.047200
     49 H171       -20.1600    40.3090    34.2420 h1         1 C8E       0.048700
     50 H172       -20.4360    41.3100    32.8220 h1         1 C8E       0.048700
     51 H191       -17.7260    42.9270    33.0110 h1         1 C8E       0.054200
     52 H192       -16.6990    41.6690    32.3330 h1         1 C8E       0.054200
     53 H201       -19.4560    42.4870    31.2400 h1         1 C8E       0.017200
     54 H202       -17.8870    42.8990    30.5510 h1         1 C8E       0.017200
     55 HO2        -18.8710    41.0780    29.4970 ho         1 C8E       0.494000
@<TRIPOS>BOND
     1     1     2 1   
     2     1    22 1   
     3     1    23 1   
     4     1    24 1   
     5     2     3 1   
     6     2    25 1   
     7     2    26 1   
     8     3     4 1   
     9     3    27 1   
    10     3    28 1   
    11     4     5 1   
    12     4    29 1   
    13     4    30 1   
    14     5     6 1   
    15     5    31 1   
    16     5    32 1   
    17     6     7 1   
    18     6    33 1   
    19     6    34 1   
    20     7     8 1   
    21     7    35 1   
    22     7    36 1   
    23     8     9 1   
    24     8    37 1   
    25     8    38 1   
    26     9    10 1   
    27    10    11 1   
    28    10    39 1   
    29    10    40 1   
    30    11    12 1   
    31    11    41 1   
    32    11    42 1   
    33    12    13 1   
    34    13    14 1   
    35    13    43 1   
    36    13    44 1   
    37    14    15 1   
    38    14    45 1   
    39    14    46 1   
    40    15    16 1   
    41    16    17 1   
    42    16    47 1   
    43    16    48 1   
    44    17    18 1   
    45    17    49 1   
    46    17    50 1   
    47    18    19 1   
    48    19    20 1   
    49    19    51 1   
    50    19    52 1   
    51    20    21 1   
    52    20    53 1   
    53    20    54 1   
    54    21    55 1   
@<TRIPOS>SUBSTRUCTURE
     1 C8E         1 TEMP              0 ****  ****    0 ROOT
