@<TRIPOS>MOLECULE
C8E
   55    54     1     0     0
SMALL
abcg2


@<TRIPOS>ATOM
      1 C1         -25.1260    42.1640    44.2540 c3         1 C8E      -0.090100
      2 C2         -24.0600    42.6270    43.2710 c3         1 C8E      -0.077400
      3 C3         -24.5630    43.7200    42.3320 c3         1 C8E      -0.075400
      4 C4         -23.5370    44.1990    41.2980 c3         1 C8E      -0.072400
      5 C5         -23.6300    43.5240    39.9300 c3         1 C8E      -0.074400
      6 C6         -23.4210    42.0130    39.9440 c3         1 C8E      -0.074400
      7 C7         -23.4790    41.3580    38.5640 c3         1 C8E      -0.110400
      8 C8         -22.3200    41.7710    37.6660 c3         1 C8E       0.151600
      9 O9         -22.2460    41.0260    36.4670 os         1 C8E      -0.454000
     10 C10        -23.1410    41.4040    35.4500 c3         1 C8E       0.125600
     11 C11        -22.7800    42.6900    34.7250 c3         1 C8E       0.132600
     12 O12        -21.5440    42.6310    34.0540 os         1 C8E      -0.464000
     13 C13        -20.4240    43.2000    34.6930 c3         1 C8E       0.133600
     14 C14        -19.3840    42.1900    35.1400 c3         1 C8E       0.138600
     15 O15        -18.6910    41.5510    34.0940 os         1 C8E      -0.457000
     16 C16        -19.2510    40.3660    33.5750 c3         1 C8E       0.137600
     17 C17        -19.8410    40.5380    32.1900 c3         1 C8E       0.130600
     18 O18        -18.8670    40.9330    31.2480 os         1 C8E      -0.438000
     19 C19        -18.8710    42.2990    30.9070 c3         1 C8E       0.163600
     20 C20        -19.9600    42.6800    29.9260 c3         1 C8E       0.125600
     21 O21        -19.7860    41.9540    28.7310 oh         1 C8E      -0.707000
     22 H11        -24.7480    41.3910    44.9230 hc         1 C8E       0.031700
     23 H12        -25.4790    42.9930    44.8720 hc         1 C8E       0.031700
     24 H13        -25.9920    41.7550    43.7300 hc         1 C8E       0.031700
     25 H21        -23.1940    43.0060    43.8220 hc         1 C8E       0.036700
     26 H22        -23.6970    41.7710    42.6970 hc         1 C8E       0.036700
     27 H31        -25.4670    43.3730    41.8180 hc         1 C8E       0.037700
     28 H32        -24.8830    44.5680    42.9460 hc         1 C8E       0.037700
     29 H41        -23.6580    45.2740    41.1430 hc         1 C8E       0.038200
     30 H42        -22.5250    44.0710    41.6970 hc         1 C8E       0.038200
     31 H51        -24.6120    43.7400    39.4920 hc         1 C8E       0.034200
     32 H52        -22.8970    43.9960    39.2690 hc         1 C8E       0.034200
     33 H61        -22.4600    41.7800    40.4170 hc         1 C8E       0.043200
     34 H62        -24.1860    41.5490    40.5710 hc         1 C8E       0.043200
     35 H71        -23.4530    40.2720    38.6840 hc         1 C8E       0.047200
     36 H72        -24.4360    41.6000    38.0920 hc         1 C8E       0.047200
     37 H81        -22.3560    42.8470    37.4620 h1         1 C8E       0.041200
     38 H82        -21.3780    41.5880    38.1920 h1         1 C8E       0.041200
     39 H101       -23.1510    40.5810    34.7310 h1         1 C8E       0.051700
     40 H102       -24.1690    41.5090    35.8230 h1         1 C8E       0.051700
     41 H111       -23.5600    42.8630    33.9760 h1         1 C8E       0.042200
     42 H112       -22.8140    43.5490    35.4070 h1         1 C8E       0.042200
     43 H131       -19.9570    43.9090    33.9990 h1         1 C8E       0.040200
     44 H132       -20.7270    43.7740    35.5770 h1         1 C8E       0.040200
     45 H141       -18.6360    42.7400    35.7190 h1         1 C8E       0.051700
     46 H142       -19.8430    41.4590    35.8140 h1         1 C8E       0.051700
     47 H161       -18.4530    39.6160    33.5290 h1         1 C8E       0.047200
     48 H162       -20.0270    39.9620    34.2370 h1         1 C8E       0.047200
     49 H171       -20.2430    39.5680    31.8770 h1         1 C8E       0.048700
     50 H172       -20.6830    41.2340    32.2240 h1         1 C8E       0.048700
     51 H191       -18.9630    42.9430    31.7880 h1         1 C8E       0.054200
     52 H192       -17.8940    42.5100    30.4610 h1         1 C8E       0.054200
     53 H201       -20.9470    42.4960    30.3700 h1         1 C8E       0.017200
     54 H202       -19.8900    43.7640    29.7640 h1         1 C8E       0.017200
     55 HO2        -20.5210    42.1560    28.1470 ho         1 C8E       0.494000
@<TRIPOS>BOND
     1     1     2 1   
     2     1    22 1   
     3     1    23 1   
     4     1    24 1   
     5     2     3 1   
     6     2    25 1   
     7     2    26 1   
     8     3     4 1   
     9     3    27 1   
    10     3    28 1   
    11     4     5 1   
    12     4    29 1   
    13     4    30 1   
    14     5     6 1   
    15     5    31 1   
    16     5    32 1   
    17     6     7 1   
    18     6    33 1   
    19     6    34 1   
    20     7     8 1   
    21     7    35 1   
    22     7    36 1   
    23     8     9 1   
    24     8    37 1   
    25     8    38 1   
    26     9    10 1   
    27    10    11 1   
    28    10    39 1   
    29    10    40 1   
    30    11    12 1   
    31    11    41 1   
    32    11    42 1   
    33    12    13 1   
    34    13    14 1   
    35    13    43 1   
    36    13    44 1   
    37    14    15 1   
    38    14    45 1   
    39    14    46 1   
    40    15    16 1   
    41    16    17 1   
    42    16    47 1   
    43    16    48 1   
    44    17    18 1   
    45    17    49 1   
    46    17    50 1   
    47    18    19 1   
    48    19    20 1   
    49    19    51 1   
    50    19    52 1   
    51    20    21 1   
    52    20    53 1   
    53    20    54 1   
    54    21    55 1   
@<TRIPOS>SUBSTRUCTURE
     1 C8E         1 TEMP              0 ****  ****    0 ROOT
