@<TRIPOS>MOLECULE
C8G
   51    53     1     0     0
SMALL
No Charge or Current Charge


@<TRIPOS>ATOM
      1 O1           8.3460    -0.2330    -0.4070 o          1 C8G      -0.599100
      2 C2          -5.0960     0.6980     0.9270 ca         1 C8G       0.118100
      3 N3           5.9790    -0.7930    -0.4280 nj         1 C8G      -0.435800
      4 C4          -1.4490     1.0570    -0.1330 c3         1 C8G       0.113800
      5 C5          -0.4160     2.2040     0.1540 c          1 C8G       0.605100
      6 C6           1.9670     2.9950     0.2760 c6         1 C8G       0.096500
      7 C7           3.4350     2.5190     0.4430 c6         1 C8G       0.150800
      8 C9           5.8830     0.1880    -1.5690 cy         1 C8G       0.085000
      9 C11          7.7240    -2.5020    -0.2290 c3         1 C8G      -0.152400
     10 C12          7.9180    -2.8960     1.2510 c3         1 C8G      -0.077100
     11 C13          5.8210     0.3060     0.5900 cy         1 C8G       0.085000
     12 C14          2.9360     0.3810    -0.5880 c6         1 C8G       0.150800
     13 C16         -4.0520    -0.3960    -0.9860 ca         1 C8G      -0.131000
     14 C17         -5.1780    -1.2260    -1.1230 ca         1 C8G       0.114000
     15 Cl1         -5.2010    -2.4250    -2.4170 cl         1 C8G      -0.178000
     16 C           -6.2680    -1.0890    -0.2390 ca         1 C8G       0.123000
     17 Cl          -7.6960    -2.1150    -0.3860 cl         1 C8G      -0.170000
     18 C3          -4.0010     0.5760     0.0290 ca         1 C8G       0.206000
     19 C1          -6.2220    -0.1290     0.7850 ca         1 C8G      -0.111000
     20 N           -2.8790     1.4220     0.1320 nu         1 C8G      -0.928200
     21 O2          -0.7890     3.3210     0.5080 o          1 C8G      -0.600100
     22 N1           0.9650     1.9060     0.0560 n          1 C8G      -0.411800
     23 C15          1.4470     0.7700    -0.7930 c6         1 C8G       0.096500
     24 N2           3.8400     1.5660    -0.6230 n3         1 C8G      -0.718600
     25 C8           5.3060     1.2440    -0.5610 cy         1 C8G       0.152500
     26 C10          7.3940    -1.0100    -0.3710 c          1 C8G       0.613100
     27 H1          -1.3240     0.7620    -1.1830 h1         1 C8G       0.056700
     28 H2          -1.1630     0.1990     0.4910 h1         1 C8G       0.056700
     29 H3           1.6910     3.5760     1.1680 h1         1 C8G       0.062700
     30 H4           1.9220     3.6810    -0.5810 h1         1 C8G       0.062700
     31 H5           4.0880     3.4030     0.4370 h1         1 C8G       0.046950
     32 H6           3.5400     2.0490     1.4320 h1         1 C8G       0.046950
     33 H7           6.8160     0.5010    -2.0540 h1         1 C8G       0.058200
     34 H8           5.1720    -0.1300    -2.3380 h1         1 C8G       0.058200
     35 H9           8.6450    -2.7320    -0.7780 hc         1 C8G       0.053700
     36 H10          6.8910    -3.1020    -0.6140 hc         1 C8G       0.053700
     37 H11          8.7470    -2.3330     1.6980 hc         1 C8G       0.042700
     38 H12          7.0100    -2.6900     1.8300 hc         1 C8G       0.042700
     39 H13          8.1450    -3.9660     1.3380 hc         1 C8G       0.042700
     40 H14          5.0660     0.0680     1.3460 h1         1 C8G       0.058200
     41 H15          6.7270     0.6720     1.0890 h1         1 C8G       0.058200
     42 H16          3.0260    -0.1400     0.3770 h1         1 C8G       0.046950
     43 H17          3.2060    -0.3460    -1.3670 h1         1 C8G       0.046950
     44 H18         -3.2270    -0.5030    -1.6830 ha         1 C8G       0.126000
     45 H19         -4.1170     1.8550     2.0830 ho         1 C8G       0.484000
     46 H20         -7.0550    -0.0330     1.4750 ha         1 C8G       0.148000
     47 H21         -3.0510     2.4060     0.3690 hn         1 C8G       0.479000
     48 H22          1.3040     1.0450    -1.8480 h1         1 C8G       0.062700
     49 H23          0.8420    -0.1280    -0.6070 h1         1 C8G       0.062700
     50 H25          5.8930     2.1690    -0.6030 h1         1 C8G       0.077700
     51 O           -5.0550     1.5890     1.9660 oh         1 C8G      -0.534100
@<TRIPOS>BOND
     1     1    26 2   
     2     2    18 ar  
     3     2    19 ar  
     4     2    51 1   
     5     3     8 1   
     6     3    11 1   
     7     3    26 1   
     8     4     5 1   
     9     4    20 1   
    10     4    27 1   
    11     4    28 1   
    12     5    21 2   
    13     5    22 1   
    14     6     7 1   
    15     6    22 1   
    16     6    29 1   
    17     6    30 1   
    18     7    24 1   
    19     7    31 1   
    20     7    32 1   
    21     8    25 1   
    22     8    33 1   
    23     8    34 1   
    24     9    10 1   
    25     9    26 1   
    26     9    35 1   
    27     9    36 1   
    28    10    37 1   
    29    10    38 1   
    30    10    39 1   
    31    11    25 1   
    32    11    40 1   
    33    11    41 1   
    34    12    23 1   
    35    12    24 1   
    36    12    42 1   
    37    12    43 1   
    38    13    14 ar  
    39    13    18 ar  
    40    13    44 1   
    41    14    15 1   
    42    14    16 ar  
    43    16    17 1   
    44    16    19 ar  
    45    18    20 1   
    46    19    46 1   
    47    20    47 1   
    48    22    23 1   
    49    23    48 1   
    50    23    49 1   
    51    24    25 1   
    52    25    50 1   
    53    45    51 1   
@<TRIPOS>SUBSTRUCTURE
     1 C8G         1 TEMP              0 ****  ****    0 ROOT
