@<TRIPOS>MOLECULE
C8G
   51    53     1     0     0
SMALL
abcg2


@<TRIPOS>ATOM
      1 O1           6.4280    -1.9620     2.0230 o          1 C8G      -0.599100
      2 C2          -4.6070     0.7340     1.0110 ca         1 C8G       0.118100
      3 N3           5.8600    -0.4950     0.4340 nj         1 C8G      -0.435800
      4 C4          -1.2160     1.2190    -0.4070 c3         1 C8G       0.113800
      5 C5          -0.2910     2.4200    -0.2580 c          1 C8G       0.605100
      6 C6           1.9330     3.3540    -0.6300 c6         1 C8G       0.096500
      7 C7           3.1960     2.8610     0.0540 c6         1 C8G       0.150800
      8 C9           5.7660     0.1760    -0.8520 cy         1 C8G       0.085000
      9 C11          7.0910    -2.4470    -0.2490 c3         1 C8G      -0.152400
     10 C12          7.9230    -3.6030     0.2780 c3         1 C8G      -0.077100
     11 C13          5.1810     0.5370     1.1930 cy         1 C8G       0.085000
     12 C14          2.7570     0.6300    -0.6700 c6         1 C8G       0.150800
     13 C16         -3.3550    -0.6840    -0.4730 ca         1 C8G      -0.131000
     14 C17         -4.3790    -1.6240    -0.4320 ca         1 C8G       0.114000
     15 CL1         -4.2030    -3.0910    -1.3250 cl         1 C8G      -0.178000
     16 C           -5.5230    -1.3730     0.3030 ca         1 C8G       0.123000
     17 CL          -6.8140    -2.5150     0.3580 cl         1 C8G      -0.170000
     18 C3          -3.4540     0.5100     0.2300 ca         1 C8G       0.206000
     19 C1          -5.6290    -0.1940     1.0320 ca         1 C8G      -0.111000
     20 N           -2.4640     1.4830     0.2560 nu         1 C8G      -0.928200
     21 O2          -0.7020     3.4560     0.2460 o          1 C8G      -0.600100
     22 N1           0.9620     2.2790    -0.7260 n          1 C8G      -0.411800
     23 C15          1.4970     1.0990    -1.3780 c6         1 C8G       0.096500
     24 N2           3.7350     1.7000    -0.6330 n3         1 C8G      -0.718600
     25 C8           5.0350     1.3380    -0.1390 cy         1 C8G       0.152500
     26 C10          6.4420    -1.6260     0.8450 c          1 C8G       0.613100
     27 H1          -1.3380     1.0010    -1.4780 h1         1 C8G       0.056700
     28 H2          -0.7600     0.3340     0.0430 h1         1 C8G       0.056700
     29 H3           1.5100     4.1850    -0.0730 h1         1 C8G       0.062700
     30 H4           2.1740     3.7100    -1.6370 h1         1 C8G       0.062700
     31 H5           3.9370     3.6630     0.0330 h1         1 C8G       0.046950
     32 H6           2.9720     2.6500     1.1120 h1         1 C8G       0.046950
     33 H7           6.7290     0.4510    -1.2870 h1         1 C8G       0.058200
     34 H8           5.1880    -0.3630    -1.6050 h1         1 C8G       0.058200
     35 H9           7.7030    -1.7930    -0.8770 hc         1 C8G       0.053700
     36 H10          6.3000    -2.8230    -0.9050 hc         1 C8G       0.053700
     37 H11          8.7450    -3.2560     0.9040 hc         1 C8G       0.042700
     38 H12          7.3220    -4.2940     0.8680 hc         1 C8G       0.042700
     39 H13          8.3520    -4.1620    -0.5520 hc         1 C8G       0.042700
     40 H14          4.2490     0.2070     1.6590 h1         1 C8G       0.058200
     41 H15          5.8020     1.0130     1.9540 h1         1 C8G       0.058200
     42 H16          2.4790     0.2740     0.3340 h1         1 C8G       0.046950
     43 H17          3.1510    -0.2250    -1.2210 h1         1 C8G       0.046950
     44 H18         -2.4840    -0.8960    -1.0770 ha         1 C8G       0.126000
     45 H19         -3.8550     2.2170     1.9360 ho         1 C8G       0.484000
     46 H20         -6.5070    -0.0070     1.6380 ha         1 C8G       0.148000
     47 H21         -2.8040     2.4180     0.0720 hn         1 C8G       0.479000
     48 H22          1.7300     1.3430    -2.4190 h1         1 C8G       0.062700
     49 H23          0.7750     0.2880    -1.3930 h1         1 C8G       0.062700
     50 H25          5.6460     2.2410    -0.1290 h1         1 C8G       0.077700
     51 O           -4.7320     1.8550     1.7470 oh         1 C8G      -0.534100
@<TRIPOS>BOND
     1     1    26 2   
     2     2    18 ar  
     3     2    19 ar  
     4     2    51 1   
     5     3     8 1   
     6     3    11 1   
     7     3    26 1   
     8     4     5 1   
     9     4    20 1   
    10     4    27 1   
    11     4    28 1   
    12     5    21 2   
    13     5    22 1   
    14     6     7 1   
    15     6    22 1   
    16     6    29 1   
    17     6    30 1   
    18     7    24 1   
    19     7    31 1   
    20     7    32 1   
    21     8    25 1   
    22     8    33 1   
    23     8    34 1   
    24     9    10 1   
    25     9    26 1   
    26     9    35 1   
    27     9    36 1   
    28    10    37 1   
    29    10    38 1   
    30    10    39 1   
    31    11    25 1   
    32    11    40 1   
    33    11    41 1   
    34    12    23 1   
    35    12    24 1   
    36    12    42 1   
    37    12    43 1   
    38    13    14 ar  
    39    13    18 ar  
    40    13    44 1   
    41    14    15 1   
    42    14    16 ar  
    43    16    17 1   
    44    16    19 ar  
    45    18    20 1   
    46    19    46 1   
    47    20    47 1   
    48    22    23 1   
    49    23    48 1   
    50    23    49 1   
    51    24    25 1   
    52    25    50 1   
    53    45    51 1   
@<TRIPOS>SUBSTRUCTURE
     1 C8G         1 TEMP              0 ****  ****    0 ROOT
