@<TRIPOS>MOLECULE
C8H
   52    55     1     0     0
SMALL
No Charge or Current Charge


@<TRIPOS>ATOM
      1 C1          -1.7440    -0.2130    -1.2420 c          1 C8H       0.558000
      2 C2          -2.4890    -1.3180    -0.4420 c6         1 C8H       0.035700
      3 C3          -3.0860    -0.7100     0.8640 c3         1 C8H      -0.043100
      4 C4          -4.1310     0.3720     0.6250 ca         1 C8H      -0.078300
      5 C5          -5.4050     0.0280     0.1310 ca         1 C8H      -0.095500
      6 C6          -6.3720     1.0240    -0.0920 ca         1 C8H      -0.105000
      7 C7          -6.0710     2.3700     0.1800 ca         1 C8H      -0.102000
      8 C12          0.9110    -0.5350     1.0190 c3         1 C8H      -0.015200
      9 C13          1.7210     0.7350     0.9080 cc         1 C8H      -0.127400
     10 C14          3.0670     0.9180     0.4040 ca         1 C8H      -0.037800
     11 C10         -0.2700    -2.4910    -0.0440 c          1 C8H       0.554000
     12 N2          -1.6770    -2.5320    -0.1360 n          1 C8H      -0.403800
     13 C22         -2.3900    -3.8100     0.0890 c3         1 C8H       0.088300
     14 C8          -4.8030     2.7180     0.6750 ca         1 C8H      -0.105000
     15 C9          -3.8360     1.7220     0.8980 ca         1 C8H      -0.095500
     16 O1          -2.3550     0.5580    -1.9730 o          1 C8H      -0.546000
     17 N1          -0.3360    -0.1760    -1.1680 n          1 C8H      -0.401800
     18 C21          0.4130     0.8030    -1.9920 c3         1 C8H       0.095300
     19 C11          0.4450    -1.1460    -0.3400 c6         1 C8H       0.039700
     20 C15          4.0530     0.0060    -0.0420 ca         1 C8H      -0.134200
     21 N4           3.8730    -1.4630     0.0120 no         1 C8H       0.688200
     22 O3           3.9980    -2.0880    -1.0490 o          1 C8H      -0.394000
     23 O4           3.8690    -1.9960     1.1270 o          1 C8H      -0.394000
     24 C20          1.2420     2.0090     1.1990 cd         1 C8H      -0.139100
     25 N3           2.2200     2.9750     0.8780 na         1 C8H      -0.208700
     26 C19          3.3010     2.2700     0.3840 ca         1 C8H      -0.070200
     27 C18          4.5020     2.8110    -0.0940 ca         1 C8H      -0.082000
     28 C17          5.4910     1.9270    -0.5650 ca         1 C8H      -0.110000
     29 C16          5.2700     0.5330    -0.5390 ca         1 C8H      -0.066000
     30 H1          -3.3250    -1.6210    -1.0870 h1         1 C8H       0.088700
     31 H2          -3.5490    -1.5100     1.4550 hc         1 C8H       0.054700
     32 H3          -2.2790    -0.3200     1.4940 hc         1 C8H       0.054700
     33 H4          -5.6460    -1.0110    -0.0810 ha         1 C8H       0.103500
     34 H5          -7.3530     0.7530    -0.4740 ha         1 C8H       0.111000
     35 H6          -6.8190     3.1400     0.0080 ha         1 C8H       0.113000
     36 H7           1.4740    -1.2770     1.5950 hc         1 C8H       0.072700
     37 H8           0.0290    -0.3270     1.6350 hc         1 C8H       0.072700
     38 H9          -2.0570    -4.5540    -0.6450 h1         1 C8H       0.046367
     39 H10         -2.1770    -4.1800     1.1000 h1         1 C8H       0.046367
     40 H11         -3.4740    -3.6700    -0.0150 h1         1 C8H       0.046367
     41 H12         -4.5690     3.7590     0.8850 ha         1 C8H       0.111000
     42 H13         -2.8570     2.0030     1.2780 ha         1 C8H       0.103500
     43 H14          0.0950     0.7300    -3.0390 h1         1 C8H       0.044367
     44 H15          0.2170     1.8180    -1.6250 h1         1 C8H       0.044367
     45 H16          1.4910     0.6080    -1.9390 h1         1 C8H       0.044367
     46 H17          1.3370    -1.4300    -0.9120 h1         1 C8H       0.089700
     47 H18          0.2660     2.2970     1.5810 h4         1 C8H       0.220000
     48 H19          2.1400     3.9830     0.9770 hn         1 C8H       0.360000
     49 H20          4.6670     3.8860    -0.1050 ha         1 C8H       0.124000
     50 H21          6.4320     2.3200    -0.9450 ha         1 C8H       0.128000
     51 H22          6.0500    -0.1390    -0.8940 ha         1 C8H       0.148000
     52 O2           0.3760    -3.4970     0.2220 o          1 C8H      -0.533000
@<TRIPOS>BOND
     1     1     2 1   
     2     1    16 2   
     3     1    17 1   
     4     2     3 1   
     5     2    12 1   
     6     2    30 1   
     7     3     4 1   
     8     3    31 1   
     9     3    32 1   
    10     4     5 ar  
    11     4    15 ar  
    12     5     6 ar  
    13     5    33 1   
    14     6     7 ar  
    15     6    34 1   
    16     7    14 ar  
    17     7    35 1   
    18     8     9 1   
    19     8    19 1   
    20     8    36 1   
    21     8    37 1   
    22     9    10 1   
    23     9    24 2   
    24    10    20 ar  
    25    10    26 ar  
    26    11    12 1   
    27    11    19 1   
    28    11    52 2   
    29    12    13 1   
    30    13    38 1   
    31    13    39 1   
    32    13    40 1   
    33    14    15 ar  
    34    14    41 1   
    35    15    42 1   
    36    17    18 1   
    37    17    19 1   
    38    18    43 1   
    39    18    44 1   
    40    18    45 1   
    41    19    46 1   
    42    20    21 1   
    43    20    29 ar  
    44    21    22 1   
    45    21    23 1   
    46    24    25 1   
    47    24    47 1   
    48    25    26 1   
    49    25    48 1   
    50    26    27 ar  
    51    27    28 ar  
    52    27    49 1   
    53    28    29 ar  
    54    28    50 1   
    55    29    51 1   
@<TRIPOS>SUBSTRUCTURE
     1 C8H         1 TEMP              0 ****  ****    0 ROOT
