@<TRIPOS>MOLECULE
C8H
   52    55     1     0     0
SMALL
bcc


@<TRIPOS>ATOM
      1 C1          -1.6860    -0.3410    -1.2780 c          1 C8H       0.700500
      2 C2          -2.4510    -1.3620    -0.4590 c6         1 C8H       0.035700
      3 C3          -2.9920    -0.7650     0.8590 c3         1 C8H      -0.043100
      4 C4          -3.9230     0.3940     0.6500 ca         1 C8H      -0.078300
      5 C5          -5.2400     0.1750     0.2520 ca         1 C8H      -0.113500
      6 C6          -6.1040     1.2400     0.0370 ca         1 C8H      -0.123000
      7 C7          -5.6610     2.5440     0.2230 ca         1 C8H      -0.120000
      8 C12          0.7720    -0.6420     1.0320 c3         1 C8H      -0.015200
      9 C13          1.5680     0.6140     0.9070 cc         1 C8H      -0.127400
     10 C14          2.8960     0.8710     0.4200 ca         1 C8H      -0.037800
     11 C10         -0.3600    -2.5710    -0.0640 c          1 C8H       0.696500
     12 N2          -1.6910    -2.5730    -0.2240 n          1 C8H      -0.470800
     13 C22         -2.4310    -3.7870     0.0710 c3         1 C8H       0.088300
     14 C8          -4.3530     2.7720     0.6270 ca         1 C8H      -0.123000
     15 C9          -3.4920     1.7030     0.8360 ca         1 C8H      -0.113500
     16 O1          -2.2930     0.4510    -1.9830 o          1 C8H      -0.621500
     17 N1          -0.3480    -0.3580    -1.1910 n          1 C8H      -0.468800
     18 C21          0.4030     0.5570    -2.0350 c3         1 C8H       0.095300
     19 C11          0.3740    -1.2670    -0.3230 c6         1 C8H       0.039700
     20 C15          3.9940     0.1420    -0.0770 ca         1 C8H      -0.134200
     21 N4           4.0250    -1.3020    -0.0400 no         1 C8H       0.308200
     22 O3           4.6320    -1.8890    -0.9070 o          1 C8H      -0.204000
     23 O4           3.4640    -1.8560     0.8790 o          1 C8H      -0.204000
     24 C20          1.0270     1.8460     1.1740 cd         1 C8H      -0.089100
     25 N3           1.9060     2.8340     0.8850 na         1 C8H      -0.158400
     26 C19          3.0530     2.2840     0.4060 ca         1 C8H      -0.070200
     27 C18          4.1940     2.9340    -0.0470 ca         1 C8H      -0.100000
     28 C17          5.2270     2.1630    -0.5390 ca         1 C8H      -0.128000
     29 C16          5.1240     0.7720    -0.5640 ca         1 C8H      -0.084000
     30 H1          -3.3090    -1.6380    -1.0770 h1         1 C8H       0.088700
     31 H2          -3.5160    -1.5650     1.3870 hc         1 C8H       0.054700
     32 H3          -2.1600    -0.4680     1.5010 hc         1 C8H       0.054700
     33 H4          -5.5980    -0.8390     0.1130 ha         1 C8H       0.121500
     34 H5          -7.1240     1.0510    -0.2700 ha         1 C8H       0.129000
     35 H6          -6.3340     3.3760     0.0590 ha         1 C8H       0.131000
     36 H7           1.2900    -1.3970     1.6190 hc         1 C8H       0.072700
     37 H8          -0.1400    -0.4000     1.5820 hc         1 C8H       0.072700
     38 H9          -1.9740    -4.6430    -0.4200 h1         1 C8H       0.046367
     39 H10         -2.4790    -3.9850     1.1420 h1         1 C8H       0.046367
     40 H11         -3.4460    -3.6800    -0.3060 h1         1 C8H       0.046367
     41 H12         -4.0000     3.7840     0.7800 ha         1 C8H       0.129000
     42 H13         -2.4720     1.8940     1.1500 ha         1 C8H       0.121500
     43 H14          0.1030     0.4530    -3.0780 h1         1 C8H       0.044367
     44 H15          0.2640     1.5950    -1.7340 h1         1 C8H       0.044367
     45 H16          1.4610     0.3220    -1.9610 h1         1 C8H       0.044367
     46 H17          1.2810    -1.5590    -0.8560 h1         1 C8H       0.089700
     47 H18          0.0440     2.0790     1.5540 h4         1 C8H       0.170000
     48 H19          1.7400     3.8200     1.0030 hn         1 C8H       0.309700
     49 H20          4.2630     4.0140    -0.0210 ha         1 C8H       0.142000
     50 H21          6.1290     2.6330    -0.9040 ha         1 C8H       0.146000
     51 H22          5.9540     0.1890    -0.9360 ha         1 C8H       0.166000
     52 O2           0.2700    -3.5550     0.2910 o          1 C8H      -0.608500
@<TRIPOS>BOND
     1     1     2 1   
     2     1    16 2   
     3     1    17 1   
     4     2     3 1   
     5     2    12 1   
     6     2    30 1   
     7     3     4 1   
     8     3    31 1   
     9     3    32 1   
    10     4     5 ar  
    11     4    15 ar  
    12     5     6 ar  
    13     5    33 1   
    14     6     7 ar  
    15     6    34 1   
    16     7    14 ar  
    17     7    35 1   
    18     8     9 1   
    19     8    19 1   
    20     8    36 1   
    21     8    37 1   
    22     9    10 1   
    23     9    24 2   
    24    10    20 ar  
    25    10    26 ar  
    26    11    12 1   
    27    11    19 1   
    28    11    52 2   
    29    12    13 1   
    30    13    38 1   
    31    13    39 1   
    32    13    40 1   
    33    14    15 ar  
    34    14    41 1   
    35    15    42 1   
    36    17    18 1   
    37    17    19 1   
    38    18    43 1   
    39    18    44 1   
    40    18    45 1   
    41    19    46 1   
    42    20    21 1   
    43    20    29 ar  
    44    21    22 1   
    45    21    23 1   
    46    24    25 1   
    47    24    47 1   
    48    25    26 1   
    49    25    48 1   
    50    26    27 ar  
    51    27    28 ar  
    52    27    49 1   
    53    28    29 ar  
    54    28    50 1   
    55    29    51 1   
@<TRIPOS>SUBSTRUCTURE
     1 C8H         1 TEMP              0 ****  ****    0 ROOT
