@<TRIPOS>MOLECULE
C8J
   69    72     1     0     0
SMALL
bcc


@<TRIPOS>ATOM
      1 C4          -3.9210    -0.6080     0.3680 ca         1 C8J       0.463800
      2 C14          5.3590    -5.0190     0.3620 c          1 C8J       0.683700
      3 C5          -4.2980     0.5450     1.0360 ca         1 C8J      -0.227200
      4 C6          -5.2260     0.3890     2.0810 ca         1 C8J       0.778200
      5 C11          6.6400    -2.8630     0.7500 ca         1 C8J      -0.114000
      6 C7           4.2350    -1.4320     0.6820 ca         1 C8J      -0.079300
      7 C8          -2.9100     1.1570    -0.4290 cc         1 C8J       0.412700
      8 C9           5.4490    -0.7760     0.8750 ca         1 C8J      -0.103000
      9 C10          6.6410    -1.4840     0.9060 ca         1 C8J      -0.141000
     10 C12          5.4360    -3.5370     0.5580 ca         1 C8J      -0.156600
     11 C13          4.2480    -2.8120     0.5140 ca         1 C8J      -0.074000
     12 N1          -5.6690    -0.8450     2.3440 nb         1 C8J      -0.840000
     13 C3           2.9470    -0.6660     0.5930 c3         1 C8J      -0.040100
     14 N3          -4.3520    -1.8420     0.6180 nb         1 C8J      -0.747000
     15 N           -1.4460     4.2530     1.7610 n8         1 C8J      -0.872800
     16 CA          -0.6330     4.8700     0.7260 c3         1 C8J       0.028500
     17 C           -0.2130     6.3000     1.1270 c          1 C8J       0.936600
     18 O           -0.2410     6.5900     2.3380 o          1 C8J      -0.837300
     19 CB           0.6350     4.0890     0.3380 c3         1 C8J      -0.105400
     20 CG           1.6360     1.9730    -0.6120 c3         1 C8J       0.176800
     21 ND           1.4460     0.5680    -0.9290 n3         1 C8J      -0.737600
     22 CE           2.6820    -0.1880    -0.8370 c3         1 C8J       0.185800
     23 C1           0.3650     2.6710    -0.1480 c3         1 C8J      -0.082400
     24 C18         -2.2520    -1.0480    -1.4480 c5         1 C8J       0.264800
     25 C2          -5.2190    -1.8640     1.6160 ca         1 C8J       0.699900
     26 C19         -2.2230    -0.6050    -2.9100 c5         1 C8J       0.059100
     27 C17         -0.8930    -1.2090    -3.3700 c5         1 C8J       0.082100
     28 C15         -0.0260    -0.9940    -2.1360 c5         1 C8J       0.140100
     29 C16          0.7220     0.3340    -2.1600 c3         1 C8J       0.172800
     30 N16          6.3900    -5.7370     0.8310 nt         1 C8J      -0.674000
     31 N6          -5.6810     1.4170     2.7990 nv         1 C8J      -0.950500
     32 N7          -3.6500     1.6400     0.5210 nd         1 C8J      -0.527100
     33 N9          -3.0310    -0.1980    -0.5850 na         1 C8J      -0.260000
     34 O15          4.4000    -5.5320    -0.2010 o          1 C8J      -0.606100
     35 O2          -3.3530    -1.0850    -3.5740 oh         1 C8J      -0.575800
     36 O3          -1.0240    -2.5890    -3.5970 oh         1 C8J      -0.582800
     37 O4          -0.9190    -1.0480    -1.0200 os         1 C8J      -0.379600
     38 H2          -2.2530     1.7440    -1.0510 h5         1 C8J       0.072800
     39 H3           5.4620     0.3010     1.0020 ha         1 C8J       0.138000
     40 H4           7.5770    -0.9610     1.0500 ha         1 C8J       0.130000
     41 H5           3.3130    -3.3350     0.3550 ha         1 C8J       0.157000
     42 H6           2.1110    -1.2940     0.9050 hc         1 C8J       0.066200
     43 H7           2.9710     0.1890     1.2730 hc         1 C8J       0.066200
     44 H8          -1.7420     3.3270     1.4770 hn         1 C8J       0.320300
     45 H9          -0.8930     4.1400     2.6020 hn         1 C8J       0.320300
     46 H11         -1.2570     4.9420    -0.1740 h1         1 C8J       0.036700
     47 H12          1.1580     4.6430    -0.4470 hc         1 C8J       0.043700
     48 H13          1.3120     4.0560     1.2000 hc         1 C8J       0.043700
     49 H14          2.3640     2.0340     0.2030 h1         1 C8J       0.030200
     50 H15          2.0800     2.5300    -1.4540 h1         1 C8J       0.030200
     51 H17          3.5430     0.3900    -1.2050 h1         1 C8J       0.027200
     52 H18          2.6260    -1.0680    -1.4830 h1         1 C8J       0.027200
     53 H20         -0.0890     2.0690     0.6440 hc         1 C8J       0.031700
     54 H21         -0.3630     2.7200    -0.9660 hc         1 C8J       0.031700
     55 H22         -2.6980    -2.0460    -1.3690 h2         1 C8J       0.114700
     56 H23         -5.6180    -2.8370     1.8800 h5         1 C8J       0.036100
     57 H24         -2.1530     0.4880    -2.9770 h1         1 C8J       0.057700
     58 H25         -0.4900    -0.6890    -4.2490 h1         1 C8J       0.051700
     59 H26          0.6890    -1.8170    -2.0380 h1         1 C8J       0.089700
     60 H27          0.0060     1.1450    -2.3090 h1         1 C8J       0.034200
     61 H28          1.3770     0.3440    -3.0470 h1         1 C8J       0.034200
     62 H29          7.1110    -5.3410     1.4080 hn         1 C8J       0.310000
     63 H30          6.3820    -6.7400     0.7380 hn         1 C8J       0.310000
     64 H31         -5.2910     2.3360     2.6850 hn         1 C8J       0.452300
     65 H32         -6.2660     1.2500     3.6000 hn         1 C8J       0.452300
     66 H33         -3.4810    -0.5750    -4.3800 ho         1 C8J       0.412000
     67 H34         -1.8120    -2.7270    -4.1360 ho         1 C8J       0.417000
     68 OXT          0.1650     7.0410     0.1950 o          1 C8J      -0.837300
     69 H1           7.5850    -3.3910     0.7580 ha         1 C8J       0.121000
@<TRIPOS>BOND
     1     1     3 ar  
     2     1    14 ar  
     3     1    33 1   
     4     2    10 1   
     5     2    30 1   
     6     2    34 2   
     7     3     4 ar  
     8     3    32 1   
     9     4    12 ar  
    10     4    31 1   
    11     5     9 ar  
    12     5    10 ar  
    13     5    69 1   
    14     6     8 ar  
    15     6    11 ar  
    16     6    13 1   
    17     7    32 2   
    18     7    33 1   
    19     7    38 1   
    20     8     9 ar  
    21     8    39 1   
    22     9    40 1   
    23    10    11 ar  
    24    11    41 1   
    25    12    25 ar  
    26    13    22 1   
    27    13    42 1   
    28    13    43 1   
    29    14    25 ar  
    30    15    16 1   
    31    15    44 1   
    32    15    45 1   
    33    16    17 1   
    34    16    19 1   
    35    16    46 1   
    36    17    18 1   
    37    17    68 1   
    38    19    23 1   
    39    19    47 1   
    40    19    48 1   
    41    20    21 1   
    42    20    23 1   
    43    20    49 1   
    44    20    50 1   
    45    21    22 1   
    46    21    29 1   
    47    22    51 1   
    48    22    52 1   
    49    23    53 1   
    50    23    54 1   
    51    24    26 1   
    52    24    33 1   
    53    24    37 1   
    54    24    55 1   
    55    25    56 1   
    56    26    27 1   
    57    26    35 1   
    58    26    57 1   
    59    27    28 1   
    60    27    36 1   
    61    27    58 1   
    62    28    29 1   
    63    28    37 1   
    64    28    59 1   
    65    29    60 1   
    66    29    61 1   
    67    30    62 1   
    68    30    63 1   
    69    31    64 1   
    70    31    65 1   
    71    35    66 1   
    72    36    67 1   
@<TRIPOS>SUBSTRUCTURE
     1 C8J         1 TEMP              0 ****  ****    0 ROOT
