@<TRIPOS>MOLECULE
C8J
   69    72     1     0     0
SMALL
No Charge or Current Charge


@<TRIPOS>ATOM
      1 C4          -2.9710    -1.2920     0.3300 ca         1 C8J       0.135500
      2 C14          4.0650    -5.1010     1.4560 c          1 C8J       0.616700
      3 C5          -3.4100    -0.3340     1.2090 ca         1 C8J      -0.096600
      4 C6          -3.9630    -0.7600     2.4340 ca         1 C8J       0.449900
      5 C11          5.8860    -3.3560     1.0010 ca         1 C8J      -0.096000
      6 C7           3.9480    -1.3180     0.8450 ca         1 C8J      -0.079300
      7 C8          -2.6540     0.7570    -0.4830 cc         1 C8J       0.412700
      8 C9           5.3090    -1.0140     0.6670 ca         1 C8J      -0.085000
      9 C10          6.2730    -2.0300     0.7460 ca         1 C8J      -0.123000
     10 C12          4.5200    -3.6840     1.1810 ca         1 C8J      -0.156600
     11 C13          3.5610    -2.6480     1.0990 ca         1 C8J      -0.056000
     12 N1          -4.0550    -2.0640     2.7390 nb         1 C8J      -0.314000
     13 C3           2.8980    -0.2170     0.7530 c3         1 C8J      -0.040100
     14 N3          -3.0520    -2.6090     0.6020 nb         1 C8J      -0.221000
     15 N           -1.7930     4.9400     1.3020 n8         1 C8J      -0.983200
     16 CA          -0.7380     5.4940     0.3800 c3         1 C8J       0.028500
     17 C           -0.2620     6.9830     0.6640 c          1 C8J       0.726000
     18 O            0.2140     7.2470     1.7620 o          1 C8J      -0.732000
     19 CB           0.4750     4.5270     0.3180 c3         1 C8J      -0.105400
     20 CG           1.4200     2.2370    -0.3940 c3         1 C8J       0.176800
     21 ND           1.1760     0.8330    -0.8400 n3         1 C8J      -0.737600
     22 CE           2.3820    -0.0350    -0.6920 c3         1 C8J       0.185800
     23 C1           0.1630     3.1350    -0.2880 c3         1 C8J      -0.082400
     24 C18         -1.9450    -1.2020    -1.9730 c5         1 C8J       0.317300
     25 C2          -3.5930    -2.9280     1.8030 ca         1 C8J       0.173900
     26 C19         -2.1050    -0.4140    -3.3350 c5         1 C8J       0.082300
     27 C17         -0.7210    -0.6510    -4.0120 c5         1 C8J       0.105300
     28 C15          0.2150    -0.6680    -2.7630 c5         1 C8J       0.163300
     29 C16          0.5770     0.7560    -2.2110 c3         1 C8J       0.172800
     30 N16          5.0020    -6.0710     1.5260 nt         1 C8J      -0.607000
     31 N6          -4.4260     0.1070     3.3730 nv         1 C8J      -1.060900
     32 N7          -3.2230     0.9610     0.7200 nd         1 C8J      -0.527100
     33 N9          -2.4950    -0.6080    -0.7520 na         1 C8J      -0.288300
     34 O15          2.8930    -5.3990     1.6170 o          1 C8J      -0.606100
     35 O2          -3.1690    -0.9060    -4.1790 oh         1 C8J      -0.698000
     36 O3          -0.7430    -1.8940    -4.7230 oh         1 C8J      -0.705000
     37 O4          -0.5320    -1.4470    -1.7930 os         1 C8J      -0.426000
     38 H2          -2.3530     1.5320    -1.1760 h5         1 C8J       0.072800
     39 H3           5.6210     0.0090     0.4660 ha         1 C8J       0.120000
     40 H4           7.3250    -1.7900     0.6080 ha         1 C8J       0.112000
     41 H5           2.5050    -2.8760     1.2300 ha         1 C8J       0.139000
     42 H6           2.0480    -0.4510     1.4050 hc         1 C8J       0.066200
     43 H7           3.3230     0.7240     1.1210 hc         1 C8J       0.066200
     44 H8          -1.9010     3.9370     1.1190 hn         1 C8J       0.375500
     45 H9          -1.4380     4.9800     2.2640 hn         1 C8J       0.375500
     46 H11         -1.1820     5.5070    -0.6260 h1         1 C8J       0.036700
     47 H12          1.2570     4.9970    -0.2920 hc         1 C8J       0.043700
     48 H13          0.8990     4.4040     1.3230 hc         1 C8J       0.043700
     49 H14          1.8740     2.2350     0.6040 h1         1 C8J       0.030200
     50 H15          2.1400     2.7200    -1.0690 h1         1 C8J       0.030200
     51 H17          3.2010     0.3510    -1.3140 h1         1 C8J       0.027200
     52 H18          2.1550    -1.0430    -1.0580 h1         1 C8J       0.027200
     53 H20         -0.5810     2.6230     0.3330 hc         1 C8J       0.031700
     54 H21         -0.2790     3.2830    -1.2800 hc         1 C8J       0.031700
     55 H22         -2.4470    -2.1730    -2.0720 h2         1 C8J       0.114700
     56 H23         -3.6640    -3.9880     2.0390 h5         1 C8J       0.036100
     57 H24         -2.2420     0.6600    -3.1560 h1         1 C8J       0.057700
     58 H25         -0.4640     0.1720    -4.6940 h1         1 C8J       0.051700
     59 H26          1.1520    -1.1920    -2.9920 h1         1 C8J       0.089700
     60 H27         -0.3390     1.3540    -2.2400 h1         1 C8J       0.034200
     61 H28          1.2640     1.2180    -2.9330 h1         1 C8J       0.034200
     62 H29          5.9750    -5.8460     1.3960 hn         1 C8J       0.310000
     63 H30          4.7130    -7.0210     1.7090 hn         1 C8J       0.310000
     64 H31         -4.1650     1.0830     3.2590 hn         1 C8J       0.507500
     65 H32         -4.5300    -0.2280     4.3270 hn         1 C8J       0.507500
     66 H33         -4.0180    -0.5220    -3.8510 ho         1 C8J       0.511000
     67 H34         -1.7080    -2.0150    -4.9160 ho         1 C8J       0.516000
     68 OXT         -0.4480     7.8280    -0.2030 o          1 C8J      -0.732000
     69 H1           6.6590    -4.1180     1.0560 ha         1 C8J       0.103000
@<TRIPOS>BOND
     1     1     3 ar  
     2     1    14 ar  
     3     1    33 1   
     4     2    10 1   
     5     2    30 1   
     6     2    34 2   
     7     3     4 ar  
     8     3    32 1   
     9     4    12 ar  
    10     4    31 1   
    11     5     9 ar  
    12     5    10 ar  
    13     5    69 1   
    14     6     8 ar  
    15     6    11 ar  
    16     6    13 1   
    17     7    32 2   
    18     7    33 1   
    19     7    38 1   
    20     8     9 ar  
    21     8    39 1   
    22     9    40 1   
    23    10    11 ar  
    24    11    41 1   
    25    12    25 ar  
    26    13    22 1   
    27    13    42 1   
    28    13    43 1   
    29    14    25 ar  
    30    15    16 1   
    31    15    44 1   
    32    15    45 1   
    33    16    17 1   
    34    16    19 1   
    35    16    46 1   
    36    17    18 1   
    37    17    68 1   
    38    19    23 1   
    39    19    47 1   
    40    19    48 1   
    41    20    21 1   
    42    20    23 1   
    43    20    49 1   
    44    20    50 1   
    45    21    22 1   
    46    21    29 1   
    47    22    51 1   
    48    22    52 1   
    49    23    53 1   
    50    23    54 1   
    51    24    26 1   
    52    24    33 1   
    53    24    37 1   
    54    24    55 1   
    55    25    56 1   
    56    26    27 1   
    57    26    35 1   
    58    26    57 1   
    59    27    28 1   
    60    27    36 1   
    61    27    58 1   
    62    28    29 1   
    63    28    37 1   
    64    28    59 1   
    65    29    60 1   
    66    29    61 1   
    67    30    62 1   
    68    30    63 1   
    69    31    64 1   
    70    31    65 1   
    71    35    66 1   
    72    36    67 1   
@<TRIPOS>SUBSTRUCTURE
     1 C8J         1 TEMP              0 ****  ****    0 ROOT
