@<TRIPOS>MOLECULE
C8K
   31    33     1     0     0
SMALL
abcg2


@<TRIPOS>ATOM
      1 C3           1.1260     0.9190     0.2170 ca         1 C8K       0.262500
      2 C4           2.0970     0.9960     1.2090 ca         1 C8K       0.187000
      3 C1           2.4740    -0.4760    -1.0310 ca         1 C8K       0.354900
      4 N2           1.3500     0.1870    -0.8700 nb         1 C8K      -0.664000
      5 C5           3.2930     0.3130     1.0750 ca         1 C8K      -0.111000
      6 C6           3.4800    -0.4380    -0.0680 ca         1 C8K      -0.042900
      7 F13          1.9220     1.7180     2.3080 f          1 C8K      -0.132000
      8 BR1          5.0660    -1.3960    -0.3320 br         1 C8K      -0.054100
      9 C15         -0.1980     1.6290     0.3070 c          1 C8K       0.515600
     10 N16         -0.9520     1.4930    -0.7890 ns         1 C8K      -0.485900
     11 O17         -0.5190     2.2640     1.3000 o          1 C8K      -0.586100
     12 C18         -2.2820     2.0470    -0.9290 c3         1 C8K       0.152300
     13 C19         -3.3610     1.0160    -0.7140 ca         1 C8K      -0.117300
     14 C20         -3.5930     0.5190     0.5820 ca         1 C8K      -0.078000
     15 C21         -4.5660    -0.4350     0.7230 ca         1 C8K       0.051100
     16 C22         -5.3030    -0.9030    -0.3560 ca         1 C8K       0.061100
     17 C23         -5.0980    -0.4320    -1.6260 ca         1 C8K      -0.102000
     18 C24         -4.1020     0.5430    -1.7850 ca         1 C8K      -0.101000
     19 O25         -6.1860    -1.8370     0.0710 os         1 C8K      -0.346100
     20 O26         -4.9730    -1.0620     1.8520 os         1 C8K      -0.343100
     21 C27         -6.0430    -1.9240     1.4840 c5         1 C8K       0.375600
     22 H1           2.5850    -1.0530    -1.9410 h4         1 C8K       0.044100
     23 H2           4.0420     0.3810     1.8530 ha         1 C8K       0.156000
     24 H3          -0.5960     0.9070    -1.5300 hn         1 C8K       0.342500
     25 H4          -2.3860     2.8660    -0.2180 h1         1 C8K       0.066200
     26 H5          -2.3690     2.4740    -1.9280 h1         1 C8K       0.066200
     27 H6          -3.0280     0.8810     1.4320 ha         1 C8K       0.149000
     28 H7          -5.6720    -0.7920    -2.4700 ha         1 C8K       0.134000
     29 H8          -3.9130     0.9350    -2.7770 ha         1 C8K       0.116000
     30 H9          -6.9660    -1.5970     1.9700 h2         1 C8K       0.064200
     31 H10         -5.8060    -2.9500     1.7690 h2         1 C8K       0.064200
@<TRIPOS>BOND
     1     1     2 ar  
     2     1     4 ar  
     3     1     9 1   
     4     2     5 ar  
     5     2     7 1   
     6     3     4 ar  
     7     3     6 ar  
     8     3    22 1   
     9     5     6 ar  
    10     5    23 1   
    11     6     8 1   
    12     9    10 1   
    13     9    11 2   
    14    10    12 1   
    15    10    24 1   
    16    12    13 1   
    17    12    25 1   
    18    12    26 1   
    19    13    14 ar  
    20    13    18 ar  
    21    14    15 ar  
    22    14    27 1   
    23    15    16 ar  
    24    15    20 1   
    25    16    17 ar  
    26    16    19 1   
    27    17    18 ar  
    28    17    28 1   
    29    18    29 1   
    30    19    21 1   
    31    20    21 1   
    32    21    30 1   
    33    21    31 1   
@<TRIPOS>SUBSTRUCTURE
     1 C8K         1 TEMP              0 ****  ****    0 ROOT
