@<TRIPOS>MOLECULE
C8K
   31    33     1     0     0
SMALL
No Charge or Current Charge


@<TRIPOS>ATOM
      1 C3           1.1690     0.8560     0.1660 ca         1 C8K       0.262500
      2 C4           2.0720     0.7450     1.2610 ca         1 C8K       0.187000
      3 C1           2.7010    -0.2260    -1.2500 ca         1 C8K       0.354900
      4 N2           1.4940     0.3690    -1.0790 nb         1 C8K      -0.664000
      5 C5           3.3190     0.1270     1.0690 ca         1 C8K      -0.111000
      6 C6           3.6360    -0.3650    -0.2070 ca         1 C8K      -0.042900
      7 F13          1.7690     1.2170     2.4930 f          1 C8K      -0.132000
      8 Br1          5.3210    -1.2160    -0.5230 br         1 C8K      -0.054100
      9 C15         -0.2030     1.5240     0.3360 c          1 C8K       0.515600
     10 N16         -0.9790     1.5550    -0.8090 ns         1 C8K      -0.485900
     11 O17         -0.6160     2.0050     1.3850 o          1 C8K      -0.586100
     12 C18         -2.3310     2.1040    -0.9030 c3         1 C8K       0.152300
     13 C19         -3.3820     1.0260    -0.6820 ca         1 C8K      -0.117300
     14 C20         -3.8180     0.7210     0.6290 ca         1 C8K      -0.078000
     15 C21         -4.7820    -0.2820     0.7910 ca         1 C8K       0.051100
     16 C22         -5.3010    -0.9580    -0.2760 ca         1 C8K       0.061100
     17 C23         -4.8960    -0.6850    -1.5870 ca         1 C8K      -0.102000
     18 C24         -3.9230     0.3190    -1.7860 ca         1 C8K      -0.101000
     19 O25         -6.2240    -1.8820     0.0940 os         1 C8K      -0.346100
     20 O26         -5.3110    -0.6920     1.9720 os         1 C8K      -0.343100
     21 C27         -6.2220    -1.7740     1.5630 c5         1 C8K       0.375600
     22 H1           2.9230    -0.5990    -2.2490 h4         1 C8K       0.044100
     23 H2           4.0200     0.0330     1.8940 ha         1 C8K       0.156000
     24 H3          -0.5610     1.1290    -1.6310 hn         1 C8K       0.342500
     25 H4          -2.4580     2.9080    -0.1660 h1         1 C8K       0.066200
     26 H5          -2.4610     2.5480    -1.8990 h1         1 C8K       0.066200
     27 H6          -3.4170     1.2450     1.4940 ha         1 C8K       0.149000
     28 H7          -5.3190    -1.2310    -2.4270 ha         1 C8K       0.134000
     29 H8          -3.5890     0.5480    -2.7960 ha         1 C8K       0.116000
     30 H9          -7.2350    -1.5530     1.9160 h2         1 C8K       0.064200
     31 H10         -5.8720    -2.7210     1.9920 h2         1 C8K       0.064200
@<TRIPOS>BOND
     1     1     2 ar  
     2     1     4 ar  
     3     1     9 1   
     4     2     5 ar  
     5     2     7 1   
     6     3     4 ar  
     7     3     6 ar  
     8     3    22 1   
     9     5     6 ar  
    10     5    23 1   
    11     6     8 1   
    12     9    10 1   
    13     9    11 2   
    14    10    12 1   
    15    10    24 1   
    16    12    13 1   
    17    12    25 1   
    18    12    26 1   
    19    13    14 ar  
    20    13    18 ar  
    21    14    15 ar  
    22    14    27 1   
    23    15    16 ar  
    24    15    20 1   
    25    16    17 ar  
    26    16    19 1   
    27    17    18 ar  
    28    17    28 1   
    29    18    29 1   
    30    19    21 1   
    31    20    21 1   
    32    21    30 1   
    33    21    31 1   
@<TRIPOS>SUBSTRUCTURE
     1 C8K         1 TEMP              0 ****  ****    0 ROOT
