@<TRIPOS>MOLECULE
C8M
   49    51     1     0     0
SMALL
No Charge or Current Charge


@<TRIPOS>ATOM
      1 N1          -5.9880     3.3480     0.0820 nt         1 C8M      -0.612000
      2 C1          -5.5690     2.1600     0.5660 c          1 C8M       0.604100
      3 C4          -4.6590     1.3540    -0.3580 c3         1 C8M      -0.164400
      4 C5          -4.1000     0.0610     0.2680 c3         1 C8M       0.175800
      5 N2          -3.0970    -0.6420    -0.5730 n3         1 C8M      -0.713600
      6 C6          -3.6480    -1.1440    -1.8590 c3         1 C8M       0.146100
      7 C15         -2.3650    -1.6890     0.1980 c3         1 C8M       0.154800
      8 C14         -1.1160    -2.3250    -0.4920 c5         1 C8M       0.168300
      9 O4          -0.1910    -1.2800    -0.9150 os         1 C8M      -0.435000
     10 C13          1.0560    -1.4350    -0.2060 c5         1 C8M       0.317300
     11 N5           1.7110    -0.1390    -0.0160 na         1 C8M      -0.286300
     12 C11          3.0390     0.1530    -0.1960 ca         1 C8M       0.139500
     13 N4           4.0640    -0.6290    -0.5910 nb         1 C8M      -0.216000
     14 C10          5.2740    -0.0260    -0.6730 ca         1 C8M       0.178900
     15 N3           5.5510     1.2700    -0.3980 nb         1 C8M      -0.299000
     16 C9           4.5130     2.0220    -0.0040 ca         1 C8M       0.441900
     17 N7           4.7900     3.3260     0.2710 nv         1 C8M      -1.059900
     18 C12          3.2140     1.4810     0.1080 ca         1 C8M      -0.091600
     19 N6           2.0300     2.1000     0.4880 nc         1 C8M      -0.566100
     20 C7           1.1500     1.0880     0.3980 cd         1 C8M       0.428800
     21 C2           0.6900    -2.2350     1.0850 c5         1 C8M       0.080300
     22 O2           1.8050    -2.8980     1.7170 oh         1 C8M      -0.692000
     23 C3          -0.2970    -3.2610     0.4650 c5         1 C8M       0.107300
     24 O3           0.4290    -4.2870    -0.2250 oh         1 C8M      -0.706000
     25 C8          -0.2980     1.3090     0.7410 c3         1 C8M      -0.120400
     26 O1          -5.9250     1.7890     1.6720 o          1 C8M      -0.610100
     27 HN1         -5.6950     3.6530    -0.8350 hn         1 C8M       0.314500
     28 HN1A        -6.5940     3.9250     0.6460 hn         1 C8M       0.314500
     29 H4          -5.2190     1.1680    -1.2810 hc         1 C8M       0.065200
     30 H4A         -3.8610     2.0150    -0.7160 hc         1 C8M       0.065200
     31 H5          -3.6350     0.3390     1.2250 h1         1 C8M       0.046700
     32 H5A         -4.9360    -0.6130     0.5030 h1         1 C8M       0.046700
     33 H6          -4.0890    -0.3310    -2.4490 h1         1 C8M       0.035033
     34 H6A         -2.8610    -1.5920    -2.4780 h1         1 C8M       0.035033
     35 H6B         -4.4220    -1.9020    -1.6830 h1         1 C8M       0.035033
     36 H9          -2.0300    -1.2630     1.1530 h1         1 C8M       0.035700
     37 H5'A        -3.0570    -2.5040     0.4520 h1         1 C8M       0.035700
     38 H7          -1.4520    -2.8840    -1.3750 h1         1 C8M       0.090700
     39 H1           1.7390    -2.0360    -0.8220 h2         1 C8M       0.117700
     40 H10          6.1080    -0.6480    -0.9930 h5         1 C8M       0.046100
     41 HN7          5.6500     3.7200    -0.0990 hn         1 C8M       0.500500
     42 HN7A         3.9970     3.9570     0.3610 hn         1 C8M       0.500500
     43 H2           0.1730    -1.5890     1.8080 h1         1 C8M       0.055700
     44 HO2          2.3400    -2.2090     2.1800 ho         1 C8M       0.513000
     45 H3          -0.9420    -3.7070     1.2360 h1         1 C8M       0.054700
     46 HO3          1.2430    -4.4110     0.3250 ho         1 C8M       0.525000
     47 H8          -0.6340     0.6060     1.5080 hc         1 C8M       0.064367
     48 H8A         -0.4670     2.3210     1.1260 hc         1 C8M       0.064367
     49 H8B         -0.9300     1.1840    -0.1440 hc         1 C8M       0.064367
@<TRIPOS>BOND
     1     1     2 1   
     2     1    27 1   
     3     1    28 1   
     4     2     3 1   
     5     2    26 2   
     6     3     4 1   
     7     3    29 1   
     8     3    30 1   
     9     4     5 1   
    10     4    31 1   
    11     4    32 1   
    12     5     6 1   
    13     5     7 1   
    14     6    33 1   
    15     6    34 1   
    16     6    35 1   
    17     7     8 1   
    18     7    36 1   
    19     7    37 1   
    20     8     9 1   
    21     8    23 1   
    22     8    38 1   
    23     9    10 1   
    24    10    11 1   
    25    10    21 1   
    26    10    39 1   
    27    11    12 1   
    28    11    20 1   
    29    12    13 ar  
    30    12    18 ar  
    31    13    14 ar  
    32    14    15 ar  
    33    14    40 1   
    34    15    16 ar  
    35    16    17 1   
    36    16    18 ar  
    37    17    41 1   
    38    17    42 1   
    39    18    19 1   
    40    19    20 2   
    41    20    25 1   
    42    21    22 1   
    43    21    23 1   
    44    21    43 1   
    45    22    44 1   
    46    23    24 1   
    47    23    45 1   
    48    24    46 1   
    49    25    47 1   
    50    25    48 1   
    51    25    49 1   
@<TRIPOS>SUBSTRUCTURE
     1 C8M         1 TEMP              0 ****  ****    0 ROOT
