@<TRIPOS>MOLECULE
C8M
   49    51     1     0     0
SMALL
bcc


@<TRIPOS>ATOM
      1 N1          -5.6010     3.3770     0.0570 nt         1 C8M      -0.679000
      2 C1          -5.3600     2.1150     0.4460 c          1 C8M       0.671100
      3 C4          -4.3210     1.3880    -0.3840 c3         1 C8M      -0.164400
      4 C5          -3.9820     0.0110     0.1650 c3         1 C8M       0.175800
      5 N2          -2.9150    -0.6320    -0.5850 n3         1 C8M      -0.713600
      6 C6          -3.3580    -1.0700    -1.8940 c3         1 C8M       0.146100
      7 C15         -2.3390    -1.7140     0.1840 c3         1 C8M       0.154800
      8 C14         -1.0880    -2.3250    -0.4320 c5         1 C8M       0.145100
      9 O4          -0.1610    -1.3170    -0.8500 os         1 C8M      -0.388600
     10 C13          1.0260    -1.4120    -0.1160 c5         1 C8M       0.264800
     11 N5           1.5940    -0.1020     0.0840 na         1 C8M      -0.257000
     12 C11          2.8770     0.2220    -0.2660 ca         1 C8M       0.467800
     13 N4           3.8080    -0.5630    -0.8010 nb         1 C8M      -0.742000
     14 C10          4.9370     0.0900    -1.0200 ca         1 C8M       0.704900
     15 N3           5.2120     1.3680    -0.7730 nb         1 C8M      -0.825000
     16 C9           4.2630     2.1440    -0.2360 ca         1 C8M       0.770200
     17 N7           4.5400     3.4260     0.0290 nv         1 C8M      -0.949500
     18 C12          3.0160     1.5620     0.0460 ca         1 C8M      -0.222200
     19 N6           1.8510     2.0580     0.5680 nc         1 C8M      -0.566100
     20 C7           1.0210     1.0540     0.5820 cd         1 C8M       0.428800
     21 C2           0.6620    -2.1790     1.1510 c5         1 C8M       0.057100
     22 O2           1.8080    -2.7490     1.7100 oh         1 C8M      -0.569800
     23 C3          -0.3450    -3.1870     0.5850 c5         1 C8M       0.084100
     24 O3           0.3150    -4.2290    -0.0860 oh         1 C8M      -0.583800
     25 C8          -0.3780     1.1490     1.0660 c3         1 C8M      -0.120400
     26 O1          -5.9360     1.5920     1.3890 o          1 C8M      -0.610100
     27 HN1         -5.1140     3.7980    -0.7150 hn         1 C8M       0.314500
     28 HN1A        -6.2880     3.9370     0.5340 hn         1 C8M       0.314500
     29 H4          -4.6980     1.3290    -1.4090 hc         1 C8M       0.065200
     30 H4A         -3.4130     1.9950    -0.4340 hc         1 C8M       0.065200
     31 H5          -3.6450     0.1240     1.1970 h1         1 C8M       0.046700
     32 H5A         -4.8860    -0.6180     0.2000 h1         1 C8M       0.046700
     33 H6          -3.7730    -0.2360    -2.4580 h1         1 C8M       0.035033
     34 H6A         -2.5250    -1.4560    -2.4810 h1         1 C8M       0.035033
     35 H6B         -4.1280    -1.8550    -1.8410 h1         1 C8M       0.035033
     36 H9          -2.0990    -1.3270     1.1790 h1         1 C8M       0.035700
     37 H5'A        -3.0540    -2.5420     0.3400 h1         1 C8M       0.035700
     38 H7          -1.3540    -2.9280    -1.3060 h1         1 C8M       0.090700
     39 H1           1.7930    -1.9720    -0.6640 h2         1 C8M       0.117700
     40 H10          5.7450    -0.4850    -1.4580 h5         1 C8M       0.046100
     41 HN7          5.3960     3.8280    -0.3150 hn         1 C8M       0.445300
     42 HN7A         3.8060     4.0580     0.2970 hn         1 C8M       0.445300
     43 H2           0.1510    -1.5200     1.8620 h1         1 C8M       0.055700
     44 HO2          1.6270    -2.9790     2.6260 ho         1 C8M       0.414000
     45 H3          -1.0210    -3.5730     1.3600 h1         1 C8M       0.054700
     46 HO3          1.0380    -4.5330     0.4760 ho         1 C8M       0.426000
     47 H8          -0.5340     0.5540     1.9680 hc         1 C8M       0.064367
     48 H8A         -0.5920     2.1860     1.3110 hc         1 C8M       0.064367
     49 H8B         -1.0900     0.8060     0.3140 hc         1 C8M       0.064367
@<TRIPOS>BOND
     1     1     2 1   
     2     1    27 1   
     3     1    28 1   
     4     2     3 1   
     5     2    26 2   
     6     3     4 1   
     7     3    29 1   
     8     3    30 1   
     9     4     5 1   
    10     4    31 1   
    11     4    32 1   
    12     5     6 1   
    13     5     7 1   
    14     6    33 1   
    15     6    34 1   
    16     6    35 1   
    17     7     8 1   
    18     7    36 1   
    19     7    37 1   
    20     8     9 1   
    21     8    23 1   
    22     8    38 1   
    23     9    10 1   
    24    10    11 1   
    25    10    21 1   
    26    10    39 1   
    27    11    12 1   
    28    11    20 1   
    29    12    13 ar  
    30    12    18 ar  
    31    13    14 ar  
    32    14    15 ar  
    33    14    40 1   
    34    15    16 ar  
    35    16    17 1   
    36    16    18 ar  
    37    17    41 1   
    38    17    42 1   
    39    18    19 1   
    40    19    20 2   
    41    20    25 1   
    42    21    22 1   
    43    21    23 1   
    44    21    43 1   
    45    22    44 1   
    46    23    24 1   
    47    23    45 1   
    48    24    46 1   
    49    25    47 1   
    50    25    48 1   
    51    25    49 1   
@<TRIPOS>SUBSTRUCTURE
     1 C8M         1 TEMP              0 ****  ****    0 ROOT
