@<TRIPOS>MOLECULE
C8N
   47    50     1     0     0
SMALL
No Charge or Current Charge


@<TRIPOS>ATOM
      1 O01         -5.4450     2.2400    -0.4020 o          1 C8N      -0.670500
      2 C02         -4.4500     1.5720    -0.6460 c          1 C8N       0.729000
      3 O03         -4.2310     1.1170    -1.7600 o          1 C8N      -0.670500
      4 C04         -3.4070     1.3840     0.4840 c5         1 C8N      -0.094300
      5 C05         -3.9520     0.3150     1.4990 c5         1 C8N       0.098600
      6 S06         -3.3740    -1.3740     0.9260 ss         1 C8N      -0.347600
      7 C07         -2.0130    -0.5580     0.2020 cc         1 C8N       0.246200
      8 C08         -0.8980    -1.3000    -0.1310 cd         1 C8N      -0.219000
      9 N09         -0.9230    -2.7940     0.1410 nx         1 C8N      -0.516000
     10 C10         -0.8110    -3.6460    -1.1260 c3         1 C8N       0.082400
     11 C11         -0.0310    -3.2200     1.3100 c3         1 C8N       0.082400
     12 C12          0.2310    -0.6360    -0.7590 cd         1 C8N       0.014800
     13 C13          1.4990    -1.3470    -1.1950 c3         1 C8N       0.012100
     14 C14          2.7690    -0.4920    -1.1320 ca         1 C8N      -0.088300
     15 C15          3.3940    -0.1280    -2.3420 ca         1 C8N      -0.085000
     16 C16          4.5570     0.6570    -2.3430 ca         1 C8N      -0.107000
     17 C17          5.1100     1.0920    -1.1310 ca         1 C8N      -0.083000
     18 C18          4.5020     0.7430     0.0880 ca         1 C8N      -0.037000
     19 C19          5.0690     1.1900     1.2970 ca         1 C8N      -0.091000
     20 C20          4.4750     0.8560     2.5240 ca         1 C8N      -0.106000
     21 C21          3.3110     0.0730     2.5460 ca         1 C8N      -0.097000
     22 C22          2.7400    -0.3780     1.3440 ca         1 C8N      -0.111000
     23 C23          3.3270    -0.0510     0.0990 ca         1 C8N      -0.024000
     24 C24          0.0630     0.7270    -0.9760 cc         1 C8N      -0.279200
     25 C25         -1.1190     1.5220    -0.5930 c          1 C8N       0.575200
     26 O26         -1.2120     2.7240    -0.8030 o          1 C8N      -0.484000
     27 N27         -2.1200     0.7850     0.0480 n          1 C8N      -0.193000
     28 H041        -3.2650     2.3590     0.9640 h1         1 C8N       0.115700
     29 H052        -3.5250     0.4970     2.4950 h1         1 C8N       0.096200
     30 H051        -5.0450     0.3420     1.6040 h1         1 C8N       0.096200
     31 H101         0.1970    -3.5630    -1.5360 hx         1 C8N       0.089867
     32 H103        -1.0160    -4.6910    -0.8840 hx         1 C8N       0.089867
     33 H102        -1.5320    -3.2920    -1.8660 hx         1 C8N       0.089867
     34 H112        -0.2470    -2.5900     2.1760 hx         1 C8N       0.089867
     35 H113        -0.2310    -4.2640     1.5600 hx         1 C8N       0.089867
     36 H111         1.0190    -3.1110     1.0390 hx         1 C8N       0.089867
     37 H132         1.6670    -2.2500    -0.6040 hc         1 C8N       0.041700
     38 H131         1.3480    -1.7120    -2.2180 hc         1 C8N       0.041700
     39 H151         2.9780    -0.4550    -3.2930 ha         1 C8N       0.112000
     40 H161         5.0280     0.9290    -3.2840 ha         1 C8N       0.121000
     41 H171         6.0120     1.7010    -1.1400 ha         1 C8N       0.119000
     42 H191         5.9710     1.7990     1.2870 ha         1 C8N       0.117000
     43 H201         4.9160     1.2040     3.4550 ha         1 C8N       0.118000
     44 H211         2.8490    -0.1850     3.4960 ha         1 C8N       0.114000
     45 H221         1.8380    -0.9780     1.4010 ha         1 C8N       0.105000
     46 H241         0.8340     1.3140    -1.4600 ha         1 C8N       0.229000
     47 H091        -1.9040    -2.9440     0.4810 hn         1 C8N       0.494000
@<TRIPOS>BOND
     1     1     2 1   
     2     2     3 1   
     3     2     4 1   
     4     4     5 1   
     5     4    27 1   
     6     4    28 1   
     7     5     6 1   
     8     5    29 1   
     9     5    30 1   
    10     6     7 1   
    11     7     8 2   
    12     7    27 1   
    13     8     9 1   
    14     8    12 1   
    15     9    10 1   
    16     9    11 1   
    17     9    47 1   
    18    10    31 1   
    19    10    32 1   
    20    10    33 1   
    21    11    34 1   
    22    11    35 1   
    23    11    36 1   
    24    12    13 1   
    25    12    24 2   
    26    13    14 1   
    27    13    37 1   
    28    13    38 1   
    29    14    15 ar  
    30    14    23 ar  
    31    15    16 ar  
    32    15    39 1   
    33    16    17 ar  
    34    16    40 1   
    35    17    18 ar  
    36    17    41 1   
    37    18    19 ar  
    38    18    23 ar  
    39    19    20 ar  
    40    19    42 1   
    41    20    21 ar  
    42    20    43 1   
    43    21    22 ar  
    44    21    44 1   
    45    22    23 ar  
    46    22    45 1   
    47    24    25 1   
    48    24    46 1   
    49    25    26 2   
    50    25    27 1   
@<TRIPOS>SUBSTRUCTURE
     1 C8N         1 TEMP              0 ****  ****    0 ROOT
