@<TRIPOS>MOLECULE
C8N
   47    50     1     0     0
SMALL
abcg2


@<TRIPOS>ATOM
      1 O01         -5.1230     2.0620    -1.0580 o          1 C8N      -0.670500
      2 C02         -3.9660     1.6140    -1.0320 c          1 C8N       0.729000
      3 O03         -3.1700     1.4480    -1.9640 o          1 C8N      -0.670500
      4 C04         -3.4790     1.2140     0.3950 c5         1 C8N      -0.094300
      5 C05         -4.3640     0.1550     1.0290 c5         1 C8N       0.098600
      6 S06         -3.7500    -1.4040     0.3100 ss         1 C8N      -0.347600
      7 C07         -2.1420    -0.7260     0.2130 cc         1 C8N       0.246200
      8 C08         -0.9850    -1.4270     0.0280 cd         1 C8N      -0.219000
      9 N09         -1.1150    -2.8850    -0.0380 nx         1 C8N      -0.516000
     10 C10         -1.1590    -3.4090    -1.4370 c3         1 C8N       0.082400
     11 C11         -0.1790    -3.6780     0.8200 c3         1 C8N       0.082400
     12 C12          0.2380    -0.7080    -0.1280 cd         1 C8N       0.014800
     13 C13          1.5540    -1.4110    -0.3800 c3         1 C8N       0.012100
     14 C14          2.7120    -0.5180    -0.7300 ca         1 C8N      -0.088300
     15 C15          3.0520    -0.3400    -2.0460 ca         1 C8N      -0.085000
     16 C16          4.1470     0.4630    -2.4220 ca         1 C8N      -0.107000
     17 C17          4.9030     1.0810    -1.4670 ca         1 C8N      -0.083000
     18 C18          4.5890     0.9280    -0.0970 ca         1 C8N      -0.037000
     19 C19          5.3630     1.5610     0.9040 ca         1 C8N      -0.091000
     20 C20          5.0520     1.4180     2.2280 ca         1 C8N      -0.106000
     21 C21          3.9450     0.6330     2.6090 ca         1 C8N      -0.097000
     22 C22          3.1800     0.0050     1.6630 ca         1 C8N      -0.111000
     23 C23          3.4800     0.1250     0.2840 ca         1 C8N      -0.024000
     24 C24          0.1880     0.6490    -0.0430 cc         1 C8N      -0.279200
     25 C25         -1.0170     1.3950     0.1970 c          1 C8N       0.575200
     26 O26         -1.0850     2.6130     0.2890 o          1 C8N      -0.484000
     27 N27         -2.1520     0.6140     0.3410 n          1 C8N      -0.193000
     28 H041        -3.4490     2.0970     1.0340 h1         1 C8N       0.115700
     29 H052        -4.2640     0.1080     2.1120 h1         1 C8N       0.096200
     30 H051        -5.4090     0.2820     0.7600 h1         1 C8N       0.096200
     31 H101        -0.2020    -3.2330    -1.9150 hx         1 C8N       0.089867
     32 H103        -1.3660    -4.4740    -1.3990 hx         1 C8N       0.089867
     33 H102        -1.9450    -2.8950    -1.9810 hx         1 C8N       0.089867
     34 H112        -0.0350    -3.1590     1.7620 hx         1 C8N       0.089867
     35 H113        -0.6460    -4.6410     0.9990 hx         1 C8N       0.089867
     36 H111         0.7630    -3.8300     0.3090 hx         1 C8N       0.089867
     37 H132         1.8100    -2.0070     0.4970 hc         1 C8N       0.041700
     38 H131         1.4280    -2.1280    -1.1940 hc         1 C8N       0.041700
     39 H151         2.4730    -0.8330    -2.8180 ha         1 C8N       0.112000
     40 H161         4.3870     0.5780    -3.4710 ha         1 C8N       0.121000
     41 H171         5.7530     1.6920    -1.7470 ha         1 C8N       0.119000
     42 H191         6.2120     2.1630     0.6040 ha         1 C8N       0.117000
     43 H201         5.6510     1.9060     2.9850 ha         1 C8N       0.118000
     44 H211         3.6960     0.5280     3.6570 ha         1 C8N       0.114000
     45 H221         2.3300    -0.5830     1.9830 ha         1 C8N       0.105000
     46 H241         1.0830     1.2390    -0.1700 ha         1 C8N       0.229000
     47 H091        -2.0320    -3.0990     0.3650 hn         1 C8N       0.494000
@<TRIPOS>BOND
     1     1     2 1   
     2     2     3 1   
     3     2     4 1   
     4     4     5 1   
     5     4    27 1   
     6     4    28 1   
     7     5     6 1   
     8     5    29 1   
     9     5    30 1   
    10     6     7 1   
    11     7     8 2   
    12     7    27 1   
    13     8     9 1   
    14     8    12 1   
    15     9    10 1   
    16     9    11 1   
    17     9    47 1   
    18    10    31 1   
    19    10    32 1   
    20    10    33 1   
    21    11    34 1   
    22    11    35 1   
    23    11    36 1   
    24    12    13 1   
    25    12    24 2   
    26    13    14 1   
    27    13    37 1   
    28    13    38 1   
    29    14    15 ar  
    30    14    23 ar  
    31    15    16 ar  
    32    15    39 1   
    33    16    17 ar  
    34    16    40 1   
    35    17    18 ar  
    36    17    41 1   
    37    18    19 ar  
    38    18    23 ar  
    39    19    20 ar  
    40    19    42 1   
    41    20    21 ar  
    42    20    43 1   
    43    21    22 ar  
    44    21    44 1   
    45    22    23 ar  
    46    22    45 1   
    47    24    25 1   
    48    24    46 1   
    49    25    26 2   
    50    25    27 1   
@<TRIPOS>SUBSTRUCTURE
     1 C8N         1 TEMP              0 ****  ****    0 ROOT
