@<TRIPOS>MOLECULE
C8O
   26    26     1     0     0
SMALL
No Charge or Current Charge


@<TRIPOS>ATOM
      1 OAI         -0.4350    -3.2160     0.0390 o          1 C8O      -0.713500
      2 CAE          0.3360    -2.2820    -0.1200 c          1 C8O       0.728600
      3 OAM          1.5260    -2.4420    -0.3530 o          1 C8O      -0.713500
      4 CAB         -0.2200    -0.8800    -0.0250 ca         1 C8O      -0.258600
      5 CAC         -1.6160    -0.6920    -0.1510 ca         1 C8O       0.031000
      6 CAD         -2.1910     0.5950    -0.0520 ca         1 C8O      -0.303200
      7 NAA         -3.6700     0.7740    -0.1890 no         1 C8O       0.713200
      8 OAH         -4.3650    -0.2280    -0.3960 o          1 C8O      -0.455000
      9 OAG         -4.1330     1.9180    -0.0910 o          1 C8O      -0.455000
     10 CAJ         -1.3580     1.7050     0.1800 ca         1 C8O       0.006000
     11 CAK          0.0250     1.5240     0.3050 ca         1 C8O      -0.274000
     12 CAF          0.6000     0.2480     0.1970 ca         1 C8O       0.421000
     13 NAL          1.9760     0.1140     0.3250 nu         1 C8O      -0.969200
     14 CAO          2.9910     1.1180    -0.0420 c3         1 C8O       0.233800
     15 CAP          4.4380     0.5560     0.1040 c3         1 C8O       0.129800
     16 NAN          5.5010     1.5340    -0.2530 n8         1 C8O      -1.001200
     17 H2          -2.2570    -1.5560    -0.3280 ha         1 C8O       0.163000
     18 H3          -1.7700     2.7100     0.2670 ha         1 C8O       0.118000
     19 H4           0.6480     2.3930     0.4900 ha         1 C8O       0.101000
     20 H5           2.2380    -0.8670     0.1370 hn         1 C8O       0.567000
     21 H6           2.8360     1.4340    -1.0830 h1         1 C8O       0.033700
     22 H7           2.8880     2.0040     0.5980 h1         1 C8O       0.033700
     23 H8           4.5950     0.2340     1.1430 h1         1 C8O       0.043700
     24 H9           4.5460    -0.3250    -0.5440 h1         1 C8O       0.043700
     25 H10          5.4760     2.3170     0.4120 hn         1 C8O       0.388000
     26 H11          6.4210     1.1060    -0.0850 hn         1 C8O       0.388000
@<TRIPOS>BOND
     1     1     2 1   
     2     2     3 1   
     3     2     4 1   
     4     4     5 ar  
     5     4    12 ar  
     6     5     6 ar  
     7     5    17 1   
     8     6     7 1   
     9     6    10 ar  
    10     7     8 1   
    11     7     9 1   
    12    10    11 ar  
    13    10    18 1   
    14    11    12 ar  
    15    11    19 1   
    16    12    13 1   
    17    13    14 1   
    18    13    20 1   
    19    14    15 1   
    20    14    21 1   
    21    14    22 1   
    22    15    16 1   
    23    15    23 1   
    24    15    24 1   
    25    16    25 1   
    26    16    26 1   
@<TRIPOS>SUBSTRUCTURE
     1 C8O         1 TEMP              0 ****  ****    0 ROOT
