@<TRIPOS>MOLECULE
C8O
   26    26     1     0     0
SMALL
abcg2


@<TRIPOS>ATOM
      1 OAI         -0.5510    -3.2340    -0.0480 o          1 C8O      -0.713500
      2 CAE          0.2980    -2.3310    -0.0470 c          1 C8O       0.728600
      3 OAM          1.5440    -2.4980    -0.0580 o          1 C8O      -0.713500
      4 CAB         -0.2100    -0.8970    -0.0330 ca         1 C8O      -0.258600
      5 CAC         -1.5710    -0.6870    -0.0220 ca         1 C8O       0.031000
      6 CAD         -2.1160     0.5960    -0.0110 ca         1 C8O      -0.303200
      7 NAA         -3.5300     0.7730     0.0030 no         1 C8O       0.713200
      8 OAH         -4.2450    -0.2120     0.0050 o          1 C8O      -0.455000
      9 OAG         -3.9760     1.9050     0.0120 o          1 C8O      -0.455000
     10 CAJ         -1.2750     1.7110    -0.0150 ca         1 C8O       0.006000
     11 CAK          0.0830     1.5340    -0.0260 ca         1 C8O      -0.274000
     12 CAF          0.6610     0.2380    -0.0310 ca         1 C8O       0.421000
     13 NAL          1.9860     0.0790    -0.0340 nu         1 C8O      -0.969200
     14 CAO          2.9530     1.1460    -0.0380 c3         1 C8O       0.233800
     15 CAP          4.3590     0.5700     0.0410 c3         1 C8O       0.129800
     16 NAN          5.3340     1.6440     0.0480 n8         1 C8O      -1.001200
     17 H2          -2.2170    -1.5530    -0.0220 ha         1 C8O       0.163000
     18 H3          -1.6770     2.7140    -0.0100 ha         1 C8O       0.118000
     19 H4           0.7220     2.4060    -0.0340 ha         1 C8O       0.101000
     20 H5           2.2720    -0.9040    -0.0520 hn         1 C8O       0.567000
     21 H6           2.8660     1.7560    -0.9440 h1         1 C8O       0.033700
     22 H7           2.7880     1.8180     0.8120 h1         1 C8O       0.033700
     23 H8           4.4190    -0.0950     0.9140 h1         1 C8O       0.043700
     24 H9           4.5340    -0.0540    -0.8390 h1         1 C8O       0.043700
     25 H10          5.3100     2.1170     0.9420 hn         1 C8O       0.388000
     26 H11          6.2640     1.2530    -0.0290 hn         1 C8O       0.388000
@<TRIPOS>BOND
     1     1     2 1   
     2     2     3 1   
     3     2     4 1   
     4     4     5 ar  
     5     4    12 ar  
     6     5     6 ar  
     7     5    17 1   
     8     6     7 1   
     9     6    10 ar  
    10     7     8 1   
    11     7     9 1   
    12    10    11 ar  
    13    10    18 1   
    14    11    12 ar  
    15    11    19 1   
    16    12    13 1   
    17    13    14 1   
    18    13    20 1   
    19    14    15 1   
    20    14    21 1   
    21    14    22 1   
    22    15    16 1   
    23    15    23 1   
    24    15    24 1   
    25    16    25 1   
    26    16    26 1   
@<TRIPOS>SUBSTRUCTURE
     1 C8O         1 TEMP              0 ****  ****    0 ROOT
