@<TRIPOS>MOLECULE
C8Q
   42    45     1     0     0
SMALL
No Charge or Current Charge


@<TRIPOS>ATOM
      1 C11          0.1280     0.4610     1.5690 cc         1 C8Q       0.020800
      2 O01         -4.8690    -2.6030    -1.0350 o          1 C8Q      -0.697500
      3 C02         -3.8060    -2.0680    -0.7540 c          1 C8Q       0.730000
      4 O03         -2.7580    -2.3930    -1.2970 o          1 C8Q      -0.697500
      5 C04         -3.7950    -1.0170     0.3920 c5         1 C8Q      -0.073300
      6 C05         -4.4340     0.3090    -0.1270 c5         1 C8Q       0.062600
      7 S06         -3.0530     1.2810    -0.9010 ss         1 C8Q      -0.306600
      8 C07         -1.9070     0.5350     0.2150 cd         1 C8Q       0.204200
      9 C08         -0.6830     1.0840     0.5520 cc         1 C8Q      -0.045900
     10 O09         -0.2950     2.2520    -0.0610 os         1 C8Q      -0.346100
     11 C10          0.1080     2.2290    -1.4450 c3         1 C8Q       0.137900
     12 C12          1.4580     1.0580     1.9850 c3         1 C8Q       0.010100
     13 C13          2.4800     1.2220     0.8510 ca         1 C8Q      -0.041300
     14 C14          2.8400     2.5320     0.4670 ca         1 C8Q      -0.109000
     15 C15          3.7510     2.7530    -0.5760 ca         1 C8Q      -0.112000
     16 C16          4.3200     1.6660    -1.2510 ca         1 C8Q      -0.111000
     17 C17          3.9890     0.3520    -0.8770 ca         1 C8Q      -0.039000
     18 C18          4.5790    -0.7270    -1.5620 ca         1 C8Q      -0.114000
     19 C19          4.2700    -2.0470    -1.2030 ca         1 C8Q      -0.104000
     20 C20          3.3730    -2.2930    -0.1530 ca         1 C8Q      -0.108000
     21 C21          2.7790    -1.2210     0.5350 ca         1 C8Q      -0.080000
     22 C22          3.0720     0.1170     0.1800 ca         1 C8Q      -0.026000
     23 C23         -0.3900    -0.6970     2.1300 cd         1 C8Q      -0.350200
     24 C24         -1.7010    -1.2940     1.7750 c          1 C8Q       0.579200
     25 O25         -2.1120    -2.3200     2.2990 o          1 C8Q      -0.573000
     26 N26         -2.4410    -0.5730     0.8220 n          1 C8Q      -0.215000
     27 H041        -4.3730    -1.4330     1.2250 h1         1 C8Q       0.091700
     28 H052        -5.2520     0.1450    -0.8410 h1         1 C8Q       0.074200
     29 H051        -4.8330     0.8910     0.7140 h1         1 C8Q       0.074200
     30 H103        -0.7080     1.9120    -2.1040 h1         1 C8Q       0.033700
     31 H102         0.4320     3.2280    -1.7620 h1         1 C8Q       0.033700
     32 H101         0.9490     1.5380    -1.5900 h1         1 C8Q       0.033700
     33 H122         1.2610     2.0280     2.4560 hc         1 C8Q       0.050700
     34 H121         1.9040     0.4510     2.7820 hc         1 C8Q       0.050700
     35 H141         2.4000     3.3890     0.9720 ha         1 C8Q       0.112000
     36 H151         4.0110     3.7690    -0.8650 ha         1 C8Q       0.103000
     37 H161         5.0230     1.8460    -2.0610 ha         1 C8Q       0.103000
     38 H181         5.2790    -0.5440    -2.3740 ha         1 C8Q       0.101000
     39 H191         4.7290    -2.8790    -1.7340 ha         1 C8Q       0.105000
     40 H201         3.1370    -3.3160     0.1300 ha         1 C8Q       0.117000
     41 H211         2.0990    -1.4510     1.3470 ha         1 C8Q       0.131000
     42 H231         0.1460    -1.2430     2.8970 ha         1 C8Q       0.186000
@<TRIPOS>BOND
     1     1     9 1   
     2     1    12 1   
     3     1    23 2   
     4     2     3 1   
     5     3     4 1   
     6     3     5 1   
     7     5     6 1   
     8     5    26 1   
     9     5    27 1   
    10     6     7 1   
    11     6    28 1   
    12     6    29 1   
    13     7     8 1   
    14     8     9 2   
    15     8    26 1   
    16     9    10 1   
    17    10    11 1   
    18    11    30 1   
    19    11    31 1   
    20    11    32 1   
    21    12    13 1   
    22    12    33 1   
    23    12    34 1   
    24    13    14 ar  
    25    13    22 ar  
    26    14    15 ar  
    27    14    35 1   
    28    15    16 ar  
    29    15    36 1   
    30    16    17 ar  
    31    16    37 1   
    32    17    18 ar  
    33    17    22 ar  
    34    18    19 ar  
    35    18    38 1   
    36    19    20 ar  
    37    19    39 1   
    38    20    21 ar  
    39    20    40 1   
    40    21    22 ar  
    41    21    41 1   
    42    23    24 1   
    43    23    42 1   
    44    24    25 2   
    45    24    26 1   
@<TRIPOS>SUBSTRUCTURE
     1 C8Q         1 TEMP              0 ****  ****    0 ROOT
