@<TRIPOS>MOLECULE
C8Q
   42    45     1     0     0
SMALL
abcg2


@<TRIPOS>ATOM
      1 C11          0.0760     0.4660     1.5150 cc         1 C8Q       0.020800
      2 O01         -4.5430    -2.4860    -1.1860 o          1 C8Q      -0.697500
      3 C02         -3.4890    -2.0470    -0.6940 c          1 C8Q       0.730000
      4 O03         -2.3210    -2.3520    -0.9670 o          1 C8Q      -0.697500
      5 C04         -3.7080    -0.9700     0.4080 c5         1 C8Q      -0.073300
      6 C05         -4.4240     0.2620    -0.1230 c5         1 C8Q       0.062600
      7 S06         -3.1010     1.2830    -0.8520 ss         1 C8Q      -0.306600
      8 C07         -1.9510     0.6070     0.2730 cd         1 C8Q       0.204200
      9 C08         -0.7080     1.1080     0.5240 cc         1 C8Q      -0.045900
     10 O09         -0.2830     2.2390    -0.1040 os         1 C8Q      -0.346100
     11 C10          0.1830     2.0520    -1.4350 c3         1 C8Q       0.137900
     12 C12          1.4090     1.0360     1.9340 c3         1 C8Q       0.010100
     13 C13          2.4260     1.2350     0.8380 ca         1 C8Q      -0.041300
     14 C14          2.8300     2.5050     0.5150 ca         1 C8Q      -0.109000
     15 C15          3.7690     2.7480    -0.5050 ca         1 C8Q      -0.112000
     16 C16          4.3040     1.7060    -1.2070 ca         1 C8Q      -0.111000
     17 C17          3.9340     0.3770    -0.9000 ca         1 C8Q      -0.039000
     18 C18          4.4920    -0.7160    -1.6050 ca         1 C8Q      -0.114000
     19 C19          4.1450    -2.0020    -1.2980 ca         1 C8Q      -0.104000
     20 C20          3.2240    -2.2520    -0.2620 ca         1 C8Q      -0.108000
     21 C21          2.6640    -1.2150     0.4350 ca         1 C8Q      -0.080000
     22 C22          2.9930     0.1300     0.1380 ca         1 C8Q      -0.026000
     23 C23         -0.4290    -0.6310     2.1550 cd         1 C8Q      -0.350200
     24 C24         -1.7150    -1.1920     1.8590 c          1 C8Q       0.579200
     25 O25         -2.1920    -2.1990     2.3800 o          1 C8Q      -0.573000
     26 N26         -2.4390    -0.4760     0.9230 n          1 C8Q      -0.215000
     27 H041        -4.2840    -1.4040     1.2260 h1         1 C8Q       0.091700
     28 H052        -5.1550     0.0110    -0.8870 h1         1 C8Q       0.074200
     29 H051        -4.9120     0.8290     0.6680 h1         1 C8Q       0.074200
     30 H103        -0.6280     1.7750    -2.1140 h1         1 C8Q       0.033700
     31 H102         0.6040     3.0010    -1.7620 h1         1 C8Q       0.033700
     32 H101         0.9600     1.2870    -1.4910 h1         1 C8Q       0.033700
     33 H122         1.2240     2.0050     2.4050 hc         1 C8Q       0.050700
     34 H121         1.8210     0.3970     2.7190 hc         1 C8Q       0.050700
     35 H141         2.4040     3.3470     1.0470 ha         1 C8Q       0.112000
     36 H151         4.0560     3.7670    -0.7320 ha         1 C8Q       0.103000
     37 H161         5.0200     1.8820    -2.0010 ha         1 C8Q       0.103000
     38 H181         5.2040    -0.5160    -2.3970 ha         1 C8Q       0.101000
     39 H191         4.5770    -2.8290    -1.8470 ha         1 C8Q       0.105000
     40 H201         2.9580    -3.2720    -0.0150 ha         1 C8Q       0.117000
     41 H211         1.9590    -1.4340     1.2240 ha         1 C8Q       0.131000
     42 H231         0.1530    -1.1310     2.9190 ha         1 C8Q       0.186000
@<TRIPOS>BOND
     1     1     9 1   
     2     1    12 1   
     3     1    23 2   
     4     2     3 1   
     5     3     4 1   
     6     3     5 1   
     7     5     6 1   
     8     5    26 1   
     9     5    27 1   
    10     6     7 1   
    11     6    28 1   
    12     6    29 1   
    13     7     8 1   
    14     8     9 2   
    15     8    26 1   
    16     9    10 1   
    17    10    11 1   
    18    11    30 1   
    19    11    31 1   
    20    11    32 1   
    21    12    13 1   
    22    12    33 1   
    23    12    34 1   
    24    13    14 ar  
    25    13    22 ar  
    26    14    15 ar  
    27    14    35 1   
    28    15    16 ar  
    29    15    36 1   
    30    16    17 ar  
    31    16    37 1   
    32    17    18 ar  
    33    17    22 ar  
    34    18    19 ar  
    35    18    38 1   
    36    19    20 ar  
    37    19    39 1   
    38    20    21 ar  
    39    20    40 1   
    40    21    22 ar  
    41    21    41 1   
    42    23    24 1   
    43    23    42 1   
    44    24    25 2   
    45    24    26 1   
@<TRIPOS>SUBSTRUCTURE
     1 C8Q         1 TEMP              0 ****  ****    0 ROOT
