@<TRIPOS>MOLECULE
C8S
   53    57     1     0     0
SMALL
abcg2


@<TRIPOS>ATOM
      1 C2           5.3770     2.1090    32.9720 c6         1 C8S      -0.099900
      2 C3           6.7970     2.5850    33.2920 c6         1 C8S       0.181500
      3 C4           5.1240     0.7150    33.5770 c6         1 C8S      -0.020000
      4 C5           7.8110     1.6060    32.7050 c6         1 C8S      -0.062400
      5 C6           6.1670    -0.2640    33.0030 c6         1 C8S      -0.064400
      6 C7           7.5880     0.2180    33.3210 c6         1 C8S      -0.061700
      7 C8           5.3430     0.7960    35.1010 c6         1 C8S      -0.099900
      8 N1           3.4400     0.1890    31.8050 n8         1 C8S      -0.985200
      9 C9           6.7630     1.2680    35.4250 c6         1 C8S       0.181500
     10 C10          6.9840     2.6540    34.8110 c6         1 C8S      -0.126400
     11 C11          7.7790     0.2920    34.8420 c6         1 C8S      -0.062400
     12 C12          3.6980     0.1800    33.2460 c3         1 C8S       0.104500
     13 O13          7.0460     3.8650    32.6910 oh         1 C8S      -0.657500
     14 C14          2.6300     0.9820    34.0020 c          1 C8S       0.562100
     15 C15          1.2210     1.2900    36.0220 c5         1 C8S       0.097700
     16 N16          2.1560     0.5090    35.1700 n          1 C8S      -0.384800
     17 C17          0.5070     0.2160    36.8790 c5         1 C8S      -0.060400
     18 C18          2.3390    -0.8330    35.6810 cx         1 C8S       0.038700
     19 C19          1.3390    -1.0470    36.7720 cx         1 C8S      -0.136700
     20 C20          2.8090    -0.9840    37.1020 cx         1 C8S      -0.129400
     21 O21          2.2530     2.0680    33.5380 o          1 C8S      -0.620100
     22 O22          6.9680     1.2990    36.8460 oh         1 C8S      -0.657500
     23 H1           4.6570     2.8290    33.3700 hc         1 C8S       0.053700
     24 H2           5.2550     2.0780    31.8880 hc         1 C8S       0.053700
     25 H3           8.8220     1.9620    32.9140 hc         1 C8S       0.056700
     26 H4           7.6870     1.5660    31.6190 hc         1 C8S       0.056700
     27 H5           6.0320    -0.3500    31.9250 hc         1 C8S       0.052700
     28 H6           6.0050    -1.2550    33.4360 hc         1 C8S       0.052700
     29 H7           8.3110    -0.4840    32.9000 hc         1 C8S       0.059700
     30 H8           4.6380     1.4950    35.5560 hc         1 C8S       0.053700
     31 H9           5.1780    -0.1810    35.5590 hc         1 C8S       0.053700
     32 H10          2.6470    -0.4110    31.6060 hn         1 C8S       0.409500
     33 H11          3.1600     1.1250    31.5290 hn         1 C8S       0.409500
     34 H13          7.9920     3.0060    35.0440 hc         1 C8S       0.051200
     35 H14          6.2660     3.3640    35.2380 hc         1 C8S       0.051200
     36 H15          7.6350    -0.6930    35.2940 hc         1 C8S       0.056700
     37 H16          8.7900     0.6300    35.0870 hc         1 C8S       0.056700
     38 H17          3.6860    -0.8590    33.5660 h1         1 C8S       0.063700
     39 H18          6.4040     4.4920    33.0490 ho         1 C8S       0.438000
     40 H19          0.5170     1.8020    35.3670 h1         1 C8S       0.094700
     41 H20          0.3810     0.5560    37.9070 hc         1 C8S       0.061200
     42 H21         -0.4860     0.0200    36.4720 hc         1 C8S       0.061200
     43 H22          2.5600    -1.5960    34.9540 h1         1 C8S       0.101700
     44 H23          0.8340    -1.9990    36.8620 hc         1 C8S       0.095700
     45 H24          3.2980    -1.9170    37.3510 hc         1 C8S       0.082700
     46 H25          3.2010    -0.1150    37.6120 hc         1 C8S       0.082700
     47 H26          6.3170     1.9030    37.2280 ho         1 C8S       0.438000
     48 H29          2.9000     4.1320    36.6660 hn         1 C8S       0.406500
     49 H30          2.7290     3.3200    35.2580 hn         1 C8S       0.406500
     50 C23          1.9290     2.3450    36.8780 c3         1 C8S       0.146800
     51 N24          2.2600     3.5600    36.1250 n8         1 C8S      -1.010200
     52 H27          1.2410     2.6240    37.6810 h1         1 C8S       0.031700
     53 H28          2.8040     1.8890    37.3540 h1         1 C8S       0.031700
@<TRIPOS>BOND
     1     1     2 1   
     2     1     3 1   
     3     1    23 1   
     4     1    24 1   
     5     2     4 1   
     6     2    10 1   
     7     2    13 1   
     8     3     5 1   
     9     3     7 1   
    10     3    12 1   
    11     4     6 1   
    12     4    25 1   
    13     4    26 1   
    14     5     6 1   
    15     5    27 1   
    16     5    28 1   
    17     6    11 1   
    18     6    29 1   
    19     7     9 1   
    20     7    30 1   
    21     7    31 1   
    22     8    12 1   
    23     8    32 1   
    24     8    33 1   
    25     9    10 1   
    26     9    11 1   
    27     9    22 1   
    28    10    34 1   
    29    10    35 1   
    30    11    36 1   
    31    11    37 1   
    32    12    14 1   
    33    12    38 1   
    34    13    39 1   
    35    14    16 1   
    36    14    21 2   
    37    15    16 1   
    38    15    17 1   
    39    15    40 1   
    40    15    50 1   
    41    16    18 1   
    42    17    19 1   
    43    17    41 1   
    44    17    42 1   
    45    18    19 1   
    46    18    20 1   
    47    18    43 1   
    48    19    20 1   
    49    19    44 1   
    50    20    45 1   
    51    20    46 1   
    52    22    47 1   
    53    48    51 1   
    54    49    51 1   
    55    50    51 1   
    56    50    52 1   
    57    50    53 1   
@<TRIPOS>SUBSTRUCTURE
     1 C8S         1 TEMP              0 ****  ****    0 ROOT
