@<TRIPOS>MOLECULE
C8S
   53    57     1     0     0
SMALL
No Charge or Current Charge


@<TRIPOS>ATOM
      1 C2           5.4300     2.2030    33.0400 c6         1 C8S      -0.099900
      2 C3           6.8970     2.5970    33.3570 c6         1 C8S       0.181500
      3 C4           5.1560     0.7170    33.5470 c6         1 C8S      -0.020000
      4 C5           7.8750     1.5810    32.6870 c6         1 C8S      -0.062400
      5 C6           6.1980    -0.3180    32.9240 c6         1 C8S      -0.064400
      6 C7           7.6460     0.1440    33.2450 c6         1 C8S      -0.061700
      7 C8           5.3960     0.7100    35.0980 c6         1 C8S      -0.099900
      8 N1           3.4580     0.2590    31.7000 n8         1 C8S      -0.985200
      9 C9           6.8520     1.1400    35.4450 c6         1 C8S       0.181500
     10 C10          7.1100     2.5720    34.8970 c6         1 C8S      -0.126400
     11 C11          7.8520     0.1500    34.7840 c6         1 C8S      -0.062400
     12 C12          3.6830     0.2640    33.1880 c3         1 C8S       0.104500
     13 O13          7.1600     3.9100    32.8610 oh         1 C8S      -0.657500
     14 C14          2.5520     1.0350    33.9890 c          1 C8S       0.562100
     15 C15          1.0480     1.2600    36.0250 c5         1 C8S       0.097700
     16 N16          2.0690     0.5250    35.2250 n          1 C8S      -0.384800
     17 C17          0.5450     0.1500    37.0460 c5         1 C8S      -0.060400
     18 C18          2.4090    -0.7510    35.7940 cx         1 C8S       0.038700
     19 C19          1.4620    -1.0920    36.8920 cx         1 C8S      -0.136700
     20 C20          2.9260    -0.9020    37.2030 cx         1 C8S      -0.129400
     21 O21          2.0780     2.0680    33.5250 o          1 C8S      -0.620100
     22 O22          7.0350     1.1290    36.8610 oh         1 C8S      -0.657500
     23 H1           4.7340     2.9090    33.5140 hc         1 C8S       0.053700
     24 H2           5.2620     2.2760    31.9580 hc         1 C8S       0.053700
     25 H3           8.9150     1.8880    32.8660 hc         1 C8S       0.056700
     26 H4           7.7370     1.5870    31.5970 hc         1 C8S       0.056700
     27 H5           6.0750    -0.3820    31.8350 hc         1 C8S       0.052700
     28 H6           6.0240    -1.3300    33.3160 hc         1 C8S       0.052700
     29 H7           8.3620    -0.5480    32.7820 hc         1 C8S       0.059700
     30 H8           4.6920     1.3870    35.6020 hc         1 C8S       0.053700
     31 H9           5.2080    -0.2940    35.5020 hc         1 C8S       0.053700
     32 H10          2.5360    -0.1460    31.4990 hn         1 C8S       0.409500
     33 H11          3.3460     1.2330    31.3940 hn         1 C8S       0.409500
     34 H13          8.1330     2.8900    35.1420 hc         1 C8S       0.051200
     35 H14          6.4370     3.2920    35.3840 hc         1 C8S       0.051200
     36 H15          7.7090    -0.8620    35.1880 hc         1 C8S       0.056700
     37 H16          8.8860     0.4350    35.0260 hc         1 C8S       0.056700
     38 H17          3.6210    -0.7880    33.4840 h1         1 C8S       0.063700
     39 H18          6.5370     4.5130    33.3200 ho         1 C8S       0.438000
     40 H19          0.2100     1.5960    35.3970 h1         1 C8S       0.094700
     41 H20          0.5310     0.5110    38.0810 hc         1 C8S       0.061200
     42 H21         -0.4920    -0.1200    36.8140 hc         1 C8S       0.061200
     43 H22          2.5780    -1.5200    35.0410 h1         1 C8S       0.101700
     44 H23          1.0490    -2.0970    36.9390 hc         1 C8S       0.095700
     45 H24          3.5180    -1.7860    37.4270 hc         1 C8S       0.082700
     46 H25          3.2330    -0.0060    37.7370 hc         1 C8S       0.082700
     47 H26          6.4410     1.8170    37.2270 ho         1 C8S       0.438000
     48 H29          2.5800     4.2400    36.2280 hn         1 C8S       0.406500
     49 H30          2.0800     3.3330    34.9730 hn         1 C8S       0.406500
     50 C23          1.6320     2.4960    36.7810 c3         1 C8S       0.146800
     51 N24          1.7870     3.6750    35.9030 n8         1 C8S      -1.010200
     52 H27          0.9780     2.7760    37.6180 h1         1 C8S       0.031700
     53 H28          2.6160     2.2270    37.1870 h1         1 C8S       0.031700
@<TRIPOS>BOND
     1     1     2 1   
     2     1     3 1   
     3     1    23 1   
     4     1    24 1   
     5     2     4 1   
     6     2    10 1   
     7     2    13 1   
     8     3     5 1   
     9     3     7 1   
    10     3    12 1   
    11     4     6 1   
    12     4    25 1   
    13     4    26 1   
    14     5     6 1   
    15     5    27 1   
    16     5    28 1   
    17     6    11 1   
    18     6    29 1   
    19     7     9 1   
    20     7    30 1   
    21     7    31 1   
    22     8    12 1   
    23     8    32 1   
    24     8    33 1   
    25     9    10 1   
    26     9    11 1   
    27     9    22 1   
    28    10    34 1   
    29    10    35 1   
    30    11    36 1   
    31    11    37 1   
    32    12    14 1   
    33    12    38 1   
    34    13    39 1   
    35    14    16 1   
    36    14    21 2   
    37    15    16 1   
    38    15    17 1   
    39    15    40 1   
    40    15    50 1   
    41    16    18 1   
    42    17    19 1   
    43    17    41 1   
    44    17    42 1   
    45    18    19 1   
    46    18    20 1   
    47    18    43 1   
    48    19    20 1   
    49    19    44 1   
    50    20    45 1   
    51    20    46 1   
    52    22    47 1   
    53    48    51 1   
    54    49    51 1   
    55    50    51 1   
    56    50    52 1   
    57    50    53 1   
@<TRIPOS>SUBSTRUCTURE
     1 C8S         1 TEMP              0 ****  ****    0 ROOT
