@<TRIPOS>MOLECULE
C8U
   40    41     1     0     0
SMALL
abcg2


@<TRIPOS>ATOM
      1 C13          0.2030    -0.3360    -2.0090 ca         1 C8U      -0.122000
      2 C15          2.3830    -0.8390    -2.8510 ca         1 C8U      -0.112000
      3 C17          1.9910    -0.6800    -0.4620 ca         1 C8U      -0.136300
      4 C02         -2.2240     1.5360    -0.2560 c2         1 C8U       0.176800
      5 C03         -0.9660     1.3000     0.1760 ce         1 C8U      -0.231400
      6 C04         -0.4310    -0.1070     0.3700 c6         1 C8U       0.119000
      7 C05         -1.5420    -1.1240     0.2720 c2         1 C8U      -0.308300
      8 C06         -2.7910    -0.8270    -0.1870 c2         1 C8U       0.234800
      9 N07         -3.0630     0.4670    -0.4800 nu         1 C8U      -0.681000
     10 C08         -3.9400    -1.7560    -0.4200 c3         1 C8U      -0.070900
     11 N09         -1.1970    -2.4360     0.6630 no         1 C8U       0.691100
     12 O10         -2.0210    -3.3350     0.6380 o          1 C8U      -0.419500
     13 O11         -0.0480    -2.6240     1.0260 o          1 C8U      -0.419500
     14 C12          0.6420    -0.3920    -0.6850 ca         1 C8U      -0.018300
     15 C14          1.0460    -0.5550    -3.0820 ca         1 C8U      -0.089000
     16 C16          2.8430    -0.8980    -1.5500 ca         1 C8U      -0.075000
     17 C18          2.6920    -0.7880     0.8670 c3         1 C8U       0.365300
     18 F19          3.6770     0.1230     0.9540 f          1 C8U      -0.111667
     19 F20          1.9480    -0.6400     1.9590 f          1 C8U      -0.111667
     20 F21          3.2870    -1.9900     0.9830 f          1 C8U      -0.111667
     21 O23          1.1090     2.0780     0.9650 o          1 C8U      -0.475000
     22 O24         -0.3430     3.5760     0.1890 os         1 C8U      -0.452100
     23 C25          0.5810     4.6250     0.4740 c3         1 C8U       0.155900
     24 H1          -0.8370    -0.1070    -2.2070 ha         1 C8U       0.106000
     25 H2           3.0640    -1.0120    -3.6730 ha         1 C8U       0.119000
     26 H3          -2.4060     3.3690    -1.3650 hc         1 C8U       0.063700
     27 H4          -3.9300     2.7160    -0.7800 hc         1 C8U       0.063700
     28 H5          -2.8300     3.5140     0.3350 hc         1 C8U       0.063700
     29 H6          -0.0100    -0.1580     1.3680 hc         1 C8U       0.114700
     30 H9          -3.9890     0.6760    -0.8170 hn         1 C8U       0.507000
     31 H10         -4.2850    -2.1970     0.5120 hc         1 C8U       0.074033
     32 H11         -4.7720    -1.2170    -0.8690 hc         1 C8U       0.074033
     33 H12         -3.6640    -2.5690    -1.0870 hc         1 C8U       0.074033
     34 H13          0.6610    -0.5000    -4.0920 ha         1 C8U       0.114000
     35 H14          3.8910    -1.1170    -1.3870 ha         1 C8U       0.128000
     36 H15          0.0930     5.5410     0.1560 h1         1 C8U       0.050367
     37 H16          0.8020     4.6850     1.5390 h1         1 C8U       0.050367
     38 H17          1.5110     4.4990    -0.0790 h1         1 C8U       0.050367
     39 C22          0.0260     2.3380     0.4860 c          1 C8U       0.609300
     40 C01         -2.8800     2.8570    -0.5290 c3         1 C8U      -0.059900
@<TRIPOS>BOND
     1     1    14 ar  
     2     1    15 ar  
     3     1    24 1   
     4     2    15 ar  
     5     2    16 ar  
     6     2    25 1   
     7     3    14 ar  
     8     3    16 ar  
     9     3    17 1   
    10     4     5 2   
    11     4     9 1   
    12     4    40 1   
    13     5     6 1   
    14     5    39 1   
    15     6     7 1   
    16     6    14 1   
    17     6    29 1   
    18     7     8 2   
    19     7    11 1   
    20     8     9 1   
    21     8    10 1   
    22     9    30 1   
    23    10    31 1   
    24    10    32 1   
    25    10    33 1   
    26    11    12 1   
    27    11    13 1   
    28    15    34 1   
    29    16    35 1   
    30    17    18 1   
    31    17    19 1   
    32    17    20 1   
    33    21    39 2   
    34    22    23 1   
    35    22    39 1   
    36    23    36 1   
    37    23    37 1   
    38    23    38 1   
    39    26    40 1   
    40    27    40 1   
    41    28    40 1   
@<TRIPOS>SUBSTRUCTURE
     1 C8U         1 TEMP              0 ****  ****    0 ROOT
