@<TRIPOS>MOLECULE
C8U
   40    41     1     0     0
SMALL
No Charge or Current Charge


@<TRIPOS>ATOM
      1 C13          0.3030    -0.2270    -2.0890 ca         1 C8U      -0.122000
      2 C15          2.4660    -0.9930    -2.8570 ca         1 C8U      -0.112000
      3 C17          1.9930    -0.9060    -0.4440 ca         1 C8U      -0.136300
      4 C02         -2.2230     1.6230    -0.2360 c2         1 C8U       0.176800
      5 C03         -0.9160     1.4050     0.0960 ce         1 C8U      -0.231400
      6 C04         -0.3770    -0.0400     0.3300 c6         1 C8U       0.119000
      7 C05         -1.4980    -1.0860     0.3240 c2         1 C8U      -0.308300
      8 C06         -2.7550    -0.7760    -0.0030 c2         1 C8U       0.234800
      9 N07         -3.0780     0.5290    -0.3090 nu         1 C8U      -0.681000
     10 C08         -3.9350    -1.7260    -0.0870 c3         1 C8U      -0.070900
     11 N09         -1.0960    -2.4310     0.6770 no         1 C8U       0.691100
     12 O10         -0.8250    -3.2070    -0.2440 o          1 C8U      -0.419500
     13 O11         -1.2530    -2.7760     1.8520 o          1 C8U      -0.419500
     14 C12          0.6850    -0.4030    -0.7400 ca         1 C8U      -0.018300
     15 C14          1.1820    -0.5160    -3.1400 ca         1 C8U      -0.089000
     16 C16          2.8650    -1.1880    -1.5270 ca         1 C8U      -0.075000
     17 C18          2.4940    -1.1660     0.9970 c3         1 C8U       0.365300
     18 F19          2.5680    -0.0330     1.7290 f          1 C8U      -0.111667
     19 F20          1.6930    -2.0190     1.6700 f          1 C8U      -0.111667
     20 F21          3.7310    -1.7140     1.0380 f          1 C8U      -0.111667
     21 O23          1.2820     2.2710     0.5900 o          1 C8U      -0.475000
     22 O24         -0.3380     3.7530     0.0080 os         1 C8U      -0.452100
     23 C25          0.5770     4.8580     0.1370 c3         1 C8U       0.155900
     24 H1          -0.6930     0.1380    -2.3270 ha         1 C8U       0.106000
     25 H2           3.1530    -1.2180    -3.6700 ha         1 C8U       0.119000
     26 H3          -2.4810     3.4410    -1.3950 hc         1 C8U       0.063700
     27 H4          -3.9980     2.7920    -0.7840 hc         1 C8U       0.063700
     28 H5          -2.9010     3.6080     0.3240 hc         1 C8U       0.063700
     29 H6           0.0650    -0.0470     1.3340 hc         1 C8U       0.114700
     30 H9          -4.0490     0.7130    -0.5630 hn         1 C8U       0.507000
     31 H10         -3.6630    -2.7590     0.1590 hc         1 C8U       0.074033
     32 H11         -4.7280    -1.4280     0.6090 hc         1 C8U       0.074033
     33 H12         -4.3580    -1.7370    -1.0980 hc         1 C8U       0.074033
     34 H13          0.8680    -0.3710    -4.1710 ha         1 C8U       0.114000
     35 H14          3.8700    -1.5650    -1.3510 ha         1 C8U       0.128000
     36 H15          0.0690     5.8030    -0.0910 h1         1 C8U       0.050367
     37 H16          0.9730     4.9220     1.1590 h1         1 C8U       0.050367
     38 H17          1.4210     4.7500    -0.5570 h1         1 C8U       0.050367
     39 C22          0.1270     2.4890     0.2550 c          1 C8U       0.609300
     40 C01         -2.9390     2.9320    -0.5380 c3         1 C8U      -0.059900
@<TRIPOS>BOND
     1     1    14 ar  
     2     1    15 ar  
     3     1    24 1   
     4     2    15 ar  
     5     2    16 ar  
     6     2    25 1   
     7     3    14 ar  
     8     3    16 ar  
     9     3    17 1   
    10     4     5 2   
    11     4     9 1   
    12     4    40 1   
    13     5     6 1   
    14     5    39 1   
    15     6     7 1   
    16     6    14 1   
    17     6    29 1   
    18     7     8 2   
    19     7    11 1   
    20     8     9 1   
    21     8    10 1   
    22     9    30 1   
    23    10    31 1   
    24    10    32 1   
    25    10    33 1   
    26    11    12 1   
    27    11    13 1   
    28    15    34 1   
    29    16    35 1   
    30    17    18 1   
    31    17    19 1   
    32    17    20 1   
    33    21    39 2   
    34    22    23 1   
    35    22    39 1   
    36    23    36 1   
    37    23    37 1   
    38    23    38 1   
    39    26    40 1   
    40    27    40 1   
    41    28    40 1   
@<TRIPOS>SUBSTRUCTURE
     1 C8U         1 TEMP              0 ****  ****    0 ROOT
