@<TRIPOS>MOLECULE
C8V
   48    49     1     0     0
SMALL
abcg2


@<TRIPOS>ATOM
      1 OAF         -6.6170    -2.0550    -0.4600 o          1 C8V      -0.706200
      2 SAZ         -6.2200    -0.7940     0.1640 s6         1 C8V       1.505300
      3 OAD         -7.1600     0.3100    -0.0240 o          1 C8V      -0.706200
      4 OAE         -5.7050    -0.9150     1.5280 o          1 C8V      -0.706200
      5 OAS         -4.9020    -0.4270    -0.7850 os         1 C8V      -0.408000
      6 NAR         -4.3030     0.7690    -0.3410 n7         1 C8V      -0.554900
      7 CAV         -2.9490     0.5050     0.1060 c6         1 C8V       0.132500
      8 CAK         -2.3550     1.8100     0.6170 c6         1 C8V      -0.075400
      9 CB          -0.9280     1.5820     1.0890 c6         1 C8V      -0.082400
     10 CAN         -2.0530    -0.0770    -0.9880 c6         1 C8V       0.063000
     11 N           -0.6830    -0.2440    -0.5280 n          1 C8V      -0.411800
     12 CAG          0.0080    -1.3550    -0.8540 c          1 C8V       0.599900
     13 OAA         -0.4660    -2.3400    -1.3900 o          1 C8V      -0.589100
     14 CA          -0.0610     0.9690    -0.0110 c6         1 C8V       0.048700
     15 C            1.3290     0.7110     0.5650 c          1 C8V       0.592100
     16 O            1.5140     0.0900     1.5900 o          1 C8V      -0.554100
     17 NAQ          2.3200     1.2890    -0.1490 ns         1 C8V      -0.376500
     18 NAP          3.6210     1.1270     0.2020 ns         1 C8V      -0.378500
     19 CAT          4.2930    -0.0140    -0.1030 c          1 C8V       0.606100
     20 OAB          3.7690    -0.9330    -0.7040 o          1 C8V      -0.573100
     21 CAW          5.7430     0.0020     0.3190 c6         1 C8V      -0.140700
     22 CAJ          6.6090     0.5280    -0.8360 c6         1 C8V      -0.071400
     23 CAH          8.0850     0.4660    -0.4600 c6         1 C8V      -0.074400
     24 CAI          8.4630    -0.9300     0.0110 c6         1 C8V       0.157800
     25 NAO          7.6150    -1.3160     1.1260 n7         1 C8V      -0.866400
     26 CAM          6.2180    -1.3870     0.7400 c6         1 C8V       0.167800
     27 H1          -4.2880     1.3640    -1.1640 hn         1 C8V       0.393000
     28 H2          -3.0070    -0.2040     0.9360 h1         1 C8V       0.110700
     29 H3          -2.3670     2.5600    -0.1810 hc         1 C8V       0.048700
     30 H4          -2.9600     2.2010     1.4370 hc         1 C8V       0.048700
     31 H5          -0.4790     2.5260     1.4010 hc         1 C8V       0.057700
     32 H6          -0.9270     0.9160     1.9550 hc         1 C8V       0.057700
     33 H7          -2.4240    -1.0420    -1.3220 h1         1 C8V       0.064700
     34 H8          -2.0560     0.6010    -1.8530 h1         1 C8V       0.064700
     35 H9           1.0730    -1.3150    -0.5920 h5         1 C8V       0.020200
     36 H10          0.0140     1.6930    -0.8330 h1         1 C8V       0.034700
     37 H11          2.1290     1.7330    -1.0350 hn         1 C8V       0.335500
     38 H12          4.0440     1.8550     0.7560 hn         1 C8V       0.335500
     39 H13          5.8640     0.6770     1.1730 hc         1 C8V       0.068700
     40 H14          6.4300    -0.0860    -1.7250 hc         1 C8V       0.047200
     41 H15          6.3220     1.5500    -1.0920 hc         1 C8V       0.047200
     42 H16          8.7010     0.7500    -1.3160 hc         1 C8V       0.045200
     43 H17          8.2920     1.1860     0.3370 hc         1 C8V       0.045200
     44 H18          8.3800    -1.6260    -0.8400 h1         1 C8V       0.029700
     45 H19          9.5050    -0.9480     0.3390 h1         1 C8V       0.029700
     46 H20          7.9060    -2.2200     1.4740 hn         1 C8V       0.414000
     47 H22          5.6340    -1.7400     1.5930 h1         1 C8V       0.051700
     48 H23          6.0430    -2.0910    -0.0870 h1         1 C8V       0.051700
@<TRIPOS>BOND
     1     1     2 1   
     2     2     3 1   
     3     2     4 1   
     4     2     5 1   
     5     5     6 1   
     6     6     7 1   
     7     6    27 1   
     8     7     8 1   
     9     7    10 1   
    10     7    28 1   
    11     8     9 1   
    12     8    29 1   
    13     8    30 1   
    14     9    14 1   
    15     9    31 1   
    16     9    32 1   
    17    10    11 1   
    18    10    33 1   
    19    10    34 1   
    20    11    12 1   
    21    11    14 1   
    22    12    13 2   
    23    12    35 1   
    24    14    15 1   
    25    14    36 1   
    26    15    16 2   
    27    15    17 1   
    28    17    18 1   
    29    17    37 1   
    30    18    19 1   
    31    18    38 1   
    32    19    20 2   
    33    19    21 1   
    34    21    22 1   
    35    21    26 1   
    36    21    39 1   
    37    22    23 1   
    38    22    40 1   
    39    22    41 1   
    40    23    24 1   
    41    23    42 1   
    42    23    43 1   
    43    24    25 1   
    44    24    44 1   
    45    24    45 1   
    46    25    26 1   
    47    25    46 1   
    48    26    47 1   
    49    26    48 1   
@<TRIPOS>SUBSTRUCTURE
     1 C8V         1 TEMP              0 ****  ****    0 ROOT
