@<TRIPOS>MOLECULE
C8V
   48    49     1     0     0
SMALL
No Charge or Current Charge


@<TRIPOS>ATOM
      1 OAF         -6.7510    -0.9400     2.3870 o          1 C8V      -0.706200
      2 SAZ         -6.1390     0.3080     1.9010 s6         1 C8V       1.505300
      3 OAD         -7.0880     1.2340     1.2590 o          1 C8V      -0.706200
      4 OAE         -5.2360     0.9520     2.8720 o          1 C8V      -0.706200
      5 OAS         -5.1290    -0.1920     0.6560 os         1 C8V      -0.408000
      6 NAR         -4.3640     0.8520    -0.1100 n7         1 C8V      -0.554900
      7 CAV         -2.9070     0.5880    -0.0590 c6         1 C8V       0.132500
      8 CAK         -2.1340     1.7120    -0.7610 c6         1 C8V      -0.075400
      9 CB          -0.6360     1.5050    -0.4950 c6         1 C8V      -0.082400
     10 CAN         -2.5380    -0.7740    -0.6980 c6         1 C8V       0.063000
     11 N           -1.0950    -1.0200    -1.0300 n          1 C8V      -0.411800
     12 CAG         -0.7330    -2.2620    -1.5970 c          1 C8V       0.599900
     13 OAA         -1.5150    -3.2040    -1.6790 o          1 C8V      -0.589100
     14 CA          -0.0960     0.1240    -0.9950 c6         1 C8V       0.048700
     15 C            1.3090    -0.2190    -0.3620 c          1 C8V       0.592100
     16 O            1.7350    -1.3650    -0.2790 o          1 C8V      -0.554100
     17 NAQ          2.0830     0.8530     0.0770 ns         1 C8V      -0.376500
     18 NAP          3.4350     0.7250     0.5300 ns         1 C8V      -0.378500
     19 CAT          4.5060     0.4460    -0.3080 c          1 C8V       0.606100
     20 OAB          4.3870     0.4190    -1.5270 o          1 C8V      -0.573100
     21 CAW          5.8560     0.1840     0.3810 c6         1 C8V      -0.140700
     22 CAJ          6.9340     1.2570     0.0700 c6         1 C8V      -0.071400
     23 CAH          8.2540     0.9180     0.8040 c6         1 C8V      -0.074400
     24 CAI          8.6900    -0.5430     0.5260 c6         1 C8V       0.157800
     25 NAO          7.6210    -1.5040     0.8950 n7         1 C8V      -0.866400
     26 CAM          6.3480    -1.2660     0.1680 c6         1 C8V       0.167800
     27 H1          -4.7220     0.8200    -1.0750 hn         1 C8V       0.393000
     28 H2          -2.5980     0.5670     0.9980 h1         1 C8V       0.110700
     29 H3          -2.3380     1.7130    -1.8410 hc         1 C8V       0.048700
     30 H4          -2.4460     2.6900    -0.3700 hc         1 C8V       0.048700
     31 H5          -0.0700     2.3220    -0.9630 hc         1 C8V       0.057700
     32 H6          -0.4700     1.5940     0.5890 hc         1 C8V       0.057700
     33 H7          -2.8870    -1.5750    -0.0310 h1         1 C8V       0.064700
     34 H8          -3.1080    -0.8780    -1.6320 h1         1 C8V       0.064700
     35 H9           0.3020    -2.2970    -1.9800 h5         1 C8V       0.020200
     36 H10          0.1520     0.2990    -2.0510 h1         1 C8V       0.034700
     37 H11          1.7330     1.7960    -0.0680 hn         1 C8V       0.335500
     38 H12          3.5870     0.6900     1.5350 hn         1 C8V       0.335500
     39 H13          5.6550     0.2690     1.4580 hc         1 C8V       0.068700
     40 H14          7.1170     1.2960    -1.0140 hc         1 C8V       0.047200
     41 H15          6.5810     2.2540     0.3670 hc         1 C8V       0.047200
     42 H16          9.0470     1.6100     0.4900 hc         1 C8V       0.045200
     43 H17          8.1240     1.0620     1.8860 hc         1 C8V       0.045200
     44 H18          8.9330    -0.6570    -0.5410 h1         1 C8V       0.029700
     45 H19          9.6000    -0.7700     1.1010 h1         1 C8V       0.029700
     46 H20          7.9470    -2.4580     0.6900 hn         1 C8V       0.414000
     47 H22          5.5820    -1.9750     0.5190 h1         1 C8V       0.051700
     48 H23          6.4990    -1.4460    -0.9080 h1         1 C8V       0.051700
@<TRIPOS>BOND
     1     1     2 1   
     2     2     3 1   
     3     2     4 1   
     4     2     5 1   
     5     5     6 1   
     6     6     7 1   
     7     6    27 1   
     8     7     8 1   
     9     7    10 1   
    10     7    28 1   
    11     8     9 1   
    12     8    29 1   
    13     8    30 1   
    14     9    14 1   
    15     9    31 1   
    16     9    32 1   
    17    10    11 1   
    18    10    33 1   
    19    10    34 1   
    20    11    12 1   
    21    11    14 1   
    22    12    13 2   
    23    12    35 1   
    24    14    15 1   
    25    14    36 1   
    26    15    16 2   
    27    15    17 1   
    28    17    18 1   
    29    17    37 1   
    30    18    19 1   
    31    18    38 1   
    32    19    20 2   
    33    19    21 1   
    34    21    22 1   
    35    21    26 1   
    36    21    39 1   
    37    22    23 1   
    38    22    40 1   
    39    22    41 1   
    40    23    24 1   
    41    23    42 1   
    42    23    43 1   
    43    24    25 1   
    44    24    44 1   
    45    24    45 1   
    46    25    26 1   
    47    25    46 1   
    48    26    47 1   
    49    26    48 1   
@<TRIPOS>SUBSTRUCTURE
     1 C8V         1 TEMP              0 ****  ****    0 ROOT
