@<TRIPOS>MOLECULE
C8W
   49    51     1     0     0
SMALL
bcc


@<TRIPOS>ATOM
      1 C1          -3.4550     0.0400     0.3830 c3         1 C8W       0.125400
      2 N6           5.6230    -0.8130     3.2360 nt         1 C8W      -0.669000
      3 C8           2.4100     2.7560    -1.5650 ca         1 C8W       0.754200
      4 C9           1.4160     1.7450    -1.7430 ca         1 C8W      -0.235300
      5 C11          0.3960     1.9430    -2.7080 cg         1 C8W       0.249800
      6 C13          3.4220     1.4740    -0.0010 ca         1 C8W       0.567600
      7 C14          2.4970     0.4150    -0.0820 ca         1 C8W      -0.303100
      8 C15          2.7990    -0.6510     0.8530 cc         1 C8W       0.323800
      9 C19         -0.3310    -2.5190    -2.2020 ca         1 C8W      -0.202000
     10 C20          0.6750    -1.5800    -1.9800 ca         1 C8W      -0.136000
     11 C21          0.4100    -0.4510    -1.2280 cp         1 C8W      -0.087000
     12 C22         -0.8650    -0.2490    -0.6930 ca         1 C8W      -0.179000
     13 C27         -4.8850    -0.1180     0.8510 c3         1 C8W      -0.058400
     14 O2          -3.1170    -1.0830    -0.4230 os         1 C8W      -0.294900
     15 S3           4.6570     1.1760     1.1600 ss         1 C8W      -0.153900
     16 C4           3.9410    -0.3740     1.5840 cd         1 C8W      -0.319600
     17 C5           4.5240    -1.2520     2.5860 c          1 C8W       0.734300
     18 N7           2.3890     3.8860    -2.2750 nv         1 C8W      -0.964500
     19 N10          3.4010     2.5920    -0.6960 nb         1 C8W      -0.763000
     20 N12         -0.4110     2.1490    -3.5070 n1         1 C8W      -0.375800
     21 N16          2.0290    -1.7410     1.0170 nv         1 C8W      -0.819600
     22 C17         -1.8690    -1.1790    -0.9030 ca         1 C8W       0.150100
     23 C18         -1.5980    -2.3320    -1.6740 ca         1 C8W       0.116100
     24 C23          1.4580     0.5690    -1.0030 cp         1 C8W       0.164000
     25 O24         -2.6310    -3.1730    -1.8340 os         1 C8W      -0.280900
     26 C25         -2.4270    -4.3470    -2.5960 c3         1 C8W       0.122700
     27 O26          4.0480    -2.3670     2.8170 o          1 C8W      -0.658100
     28 C28         -5.2950     1.0440     1.7430 c3         1 C8W      -0.208400
     29 C29         -6.7240     0.9640     2.3130 c          1 C8W       0.930600
     30 O30         -7.1160     1.9720     2.9370 o          1 C8W      -0.841800
     31 O31         -7.3680    -0.0860     2.1240 o          1 C8W      -0.841800
     32 H1          -3.3360     0.9650    -0.1950 h1         1 C8W       0.026200
     33 H2          -2.7790     0.1010     1.2440 h1         1 C8W       0.026200
     34 H3           5.9360     0.1430     3.2090 hn         1 C8W       0.306000
     35 H4           5.9910    -1.3730     3.9870 hn         1 C8W       0.306000
     36 H5          -0.1020    -3.3920    -2.7970 ha         1 C8W       0.134000
     37 H6           1.6580    -1.7430    -2.4010 ha         1 C8W       0.132000
     38 H7          -1.0530     0.6400    -0.1070 ha         1 C8W       0.155000
     39 H8          -5.5490    -0.1780    -0.0150 hc         1 C8W       0.058700
     40 H9          -4.9840    -1.0580     1.3960 hc         1 C8W       0.058700
     41 H10          1.6390     4.1210    -2.9020 hn         1 C8W       0.448800
     42 H11          3.0710     4.6000    -2.0820 hn         1 C8W       0.448800
     43 H12          1.3520    -1.9900     0.3190 hn         1 C8W       0.453800
     44 H13          2.3970    -2.4780     1.5980 hn         1 C8W       0.453800
     45 H14         -3.3800    -4.8700    -2.6170 h1         1 C8W       0.037367
     46 H15         -2.1260    -4.1200    -3.6220 h1         1 C8W       0.037367
     47 H16         -1.6760    -5.0010    -2.1440 h1         1 C8W       0.037367
     48 H17         -4.6000     1.1220     2.5870 hc         1 C8W       0.017700
     49 H18         -5.1930     1.9890     1.2000 hc         1 C8W       0.017700
@<TRIPOS>BOND
     1     1    13 1   
     2     1    14 1   
     3     1    32 1   
     4     1    33 1   
     5     2    17 1   
     6     2    34 1   
     7     2    35 1   
     8     3     4 ar  
     9     3    18 1   
    10     3    19 ar  
    11     4     5 1   
    12     4    24 ar  
    13     5    20 3   
    14     6     7 ar  
    15     6    15 1   
    16     6    19 ar  
    17     7     8 1   
    18     7    24 ar  
    19     8    16 2   
    20     8    21 1   
    21     9    10 ar  
    22     9    23 ar  
    23     9    36 1   
    24    10    11 ar  
    25    10    37 1   
    26    11    12 ar  
    27    11    24 1   
    28    12    22 ar  
    29    12    38 1   
    30    13    28 1   
    31    13    39 1   
    32    13    40 1   
    33    14    22 1   
    34    15    16 1   
    35    16    17 1   
    36    17    27 2   
    37    18    41 1   
    38    18    42 1   
    39    21    43 1   
    40    21    44 1   
    41    22    23 ar  
    42    23    25 1   
    43    25    26 1   
    44    26    45 1   
    45    26    46 1   
    46    26    47 1   
    47    28    29 1   
    48    28    48 1   
    49    28    49 1   
    50    29    30 1   
    51    29    31 1   
@<TRIPOS>SUBSTRUCTURE
     1 C8W         1 TEMP              0 ****  ****    0 ROOT
