@<TRIPOS>MOLECULE
C8W
   49    51     1     0     0
SMALL
No Charge or Current Charge


@<TRIPOS>ATOM
      1 C1          -3.4910     0.1160     0.5030 c3         1 C8W       0.148600
      2 N6           5.6480    -0.9920     3.1130 nt         1 C8W      -0.602000
      3 C8           2.5150     2.7780    -1.6000 ca         1 C8W       0.688900
      4 C9           1.4800     1.8560    -1.8050 ca         1 C8W      -0.170000
      5 C11          0.4550     2.1260    -2.7680 cg         1 C8W       0.339000
      6 C13          3.5150     1.4910    -0.0370 ca         1 C8W       0.502300
      7 C14          2.5590     0.4930    -0.1320 ca         1 C8W      -0.237800
      8 C15          2.8360    -0.5980     0.7850 cc         1 C8W       0.323800
      9 C19         -0.3150    -2.5120    -2.1810 ca         1 C8W      -0.184000
     10 C20          0.6780    -1.5370    -2.0020 ca         1 C8W      -0.118000
     11 C21          0.4270    -0.3760    -1.2390 cp         1 C8W      -0.087000
     12 C22         -0.8530    -0.2080    -0.6620 ca         1 C8W      -0.161000
     13 C27         -4.9560    -0.0690     0.9450 c3         1 C8W      -0.058400
     14 O2          -3.1240    -1.0310    -0.2810 os         1 C8W      -0.318100
     15 S3           4.7960     1.1520     1.1390 ss         1 C8W      -0.153900
     16 C4           3.9920    -0.4020     1.5140 cd         1 C8W      -0.319600
     17 C5           4.5140    -1.3750     2.5010 c          1 C8W       0.667300
     18 N7           2.6570     3.9530    -2.2200 nv         1 C8W      -1.074900
     19 N10          3.5140     2.6290    -0.7500 nb         1 C8W      -0.763000
     20 N12         -0.3810     2.3590    -3.5480 n1         1 C8W      -0.465000
     21 N16          2.0170    -1.6670     0.9020 nv         1 C8W      -0.930000
     22 C17         -1.8640    -1.1790    -0.8380 ca         1 C8W       0.150100
     23 C18         -1.5940    -2.3400    -1.6020 ca         1 C8W       0.116100
     24 C23          1.4900     0.6560    -1.0520 cp         1 C8W       0.164000
     25 O24         -2.5990    -3.2810    -1.7600 os         1 C8W      -0.304100
     26 C25         -2.4150    -4.4870    -2.5210 c3         1 C8W       0.145900
     27 O26          4.0030    -2.4500     2.7720 o          1 C8W      -0.658100
     28 C28         -5.4860     1.1060     1.8050 c3         1 C8W      -0.208400
     29 C29         -6.9490     0.8510     2.2060 c          1 C8W       0.720000
     30 O30         -7.8280     1.2350     1.4500 o          1 C8W      -0.736500
     31 O31         -7.1640     0.2280     3.2340 o          1 C8W      -0.736500
     32 H1          -3.4000     1.0350    -0.0900 h1         1 C8W       0.026200
     33 H2          -2.8490     0.2000     1.3900 h1         1 C8W       0.026200
     34 H3           6.0600    -0.1030     2.8780 hn         1 C8W       0.306000
     35 H4           6.0700    -1.5990     3.7980 hn         1 C8W       0.306000
     36 H5          -0.0770    -3.3900    -2.7750 ha         1 C8W       0.116000
     37 H6           1.6570    -1.6780    -2.4590 ha         1 C8W       0.114000
     38 H7          -1.0370     0.6890    -0.0780 ha         1 C8W       0.137000
     39 H8          -5.5860    -0.1780     0.0530 hc         1 C8W       0.058700
     40 H9          -5.0420    -1.0020     1.5150 hc         1 C8W       0.058700
     41 H10          1.8140     4.4010    -2.5630 hn         1 C8W       0.504000
     42 H11          3.3370     4.5630    -1.7840 hn         1 C8W       0.504000
     43 H12          1.2890    -1.8310     0.2120 hn         1 C8W       0.509000
     44 H13          2.3240    -2.4470     1.4830 hn         1 C8W       0.509000
     45 H14         -3.3350    -5.0830    -2.5140 h1         1 C8W       0.037367
     46 H15         -2.1660    -4.2560    -3.5640 h1         1 C8W       0.037367
     47 H16         -1.6100    -5.0990    -2.0920 h1         1 C8W       0.037367
     48 H17         -4.8440     1.1400     2.6940 hc         1 C8W       0.017700
     49 H18         -5.4110     2.0000     1.1720 hc         1 C8W       0.017700
@<TRIPOS>BOND
     1     1    13 1   
     2     1    14 1   
     3     1    32 1   
     4     1    33 1   
     5     2    17 1   
     6     2    34 1   
     7     2    35 1   
     8     3     4 ar  
     9     3    18 1   
    10     3    19 ar  
    11     4     5 1   
    12     4    24 ar  
    13     5    20 3   
    14     6     7 ar  
    15     6    15 1   
    16     6    19 ar  
    17     7     8 1   
    18     7    24 ar  
    19     8    16 2   
    20     8    21 1   
    21     9    10 ar  
    22     9    23 ar  
    23     9    36 1   
    24    10    11 ar  
    25    10    37 1   
    26    11    12 ar  
    27    11    24 1   
    28    12    22 ar  
    29    12    38 1   
    30    13    28 1   
    31    13    39 1   
    32    13    40 1   
    33    14    22 1   
    34    15    16 1   
    35    16    17 1   
    36    17    27 2   
    37    18    41 1   
    38    18    42 1   
    39    21    43 1   
    40    21    44 1   
    41    22    23 ar  
    42    23    25 1   
    43    25    26 1   
    44    26    45 1   
    45    26    46 1   
    46    26    47 1   
    47    28    29 1   
    48    28    48 1   
    49    28    49 1   
    50    29    30 1   
    51    29    31 1   
@<TRIPOS>SUBSTRUCTURE
     1 C8W         1 TEMP              0 ****  ****    0 ROOT
