@<TRIPOS>MOLECULE
C8Y
   26    26     1     0     0
SMALL
No Charge or Current Charge


@<TRIPOS>ATOM
      1 OAE          9.1040    -1.7160     1.7750 o          1 C8Y      -0.711200
      2 SAP          9.0400    -1.7170     0.3050 s6         1 C8Y       1.500300
      3 OAC          8.6760    -3.0160    -0.2870 o          1 C8Y      -0.711200
      4 OAD          8.3190    -0.5690    -0.2640 o          1 C8Y      -0.711200
      5 OAL         10.6310    -1.4900    -0.1750 os         1 C8Y      -0.432000
      6 NAK         11.2380    -2.5680    -1.0290 n7         1 C8Y      -0.521900
      7 CAN         11.5510    -2.1090    -2.4150 c6         1 C8Y       0.127500
      8 CAI         12.8670    -1.2960    -2.4920 c6         1 C8Y      -0.050400
      9 CAH         12.6700     0.1610    -2.0170 c6         1 C8Y      -0.077400
     10 CAM         11.5380     0.8900    -2.7920 c6         1 C8Y       0.161800
     11 CAF         12.0000     1.3280    -4.1360 c1         1 C8Y       0.309900
     12 NAA         12.3720     1.6410    -5.1980 n1         1 C8Y      -0.505000
     13 NAO         10.2660     0.0990    -2.8710 n          1 C8Y      -0.406800
     14 CAG          9.0360     0.7430    -3.0890 c          1 C8Y       0.622900
     15 OAB          8.9170     1.9650    -3.0840 o          1 C8Y      -0.604100
     16 CAJ         10.3820    -1.3690    -3.1360 c6         1 C8Y       0.092000
     17 H1          10.4810    -3.2730    -1.0780 hn         1 C8Y       0.400000
     18 H2          11.7330    -3.0310    -2.9860 h1         1 C8Y       0.046700
     19 H3          13.6480    -1.7850    -1.8950 hc         1 C8Y       0.042200
     20 H4          13.2310    -1.2970    -3.5290 hc         1 C8Y       0.042200
     21 H5          13.6150     0.7150    -2.1080 hc         1 C8Y       0.069200
     22 H6          12.4330     0.1670    -0.9460 hc         1 C8Y       0.069200
     23 H7          11.3340     1.8290    -2.2580 h1         1 C8Y       0.109700
     24 H8           8.2000     0.0410    -3.2700 h5         1 C8Y       0.036200
     25 H9           9.4330    -1.8670    -2.8920 h1         1 C8Y       0.050700
     26 H10         10.5250    -1.4930    -4.2190 h1         1 C8Y       0.050700
@<TRIPOS>BOND
     1     1     2 1   
     2     2     3 1   
     3     2     4 1   
     4     2     5 1   
     5     5     6 1   
     6     6     7 1   
     7     6    17 1   
     8     7     8 1   
     9     7    16 1   
    10     7    18 1   
    11     8     9 1   
    12     8    19 1   
    13     8    20 1   
    14     9    10 1   
    15     9    21 1   
    16     9    22 1   
    17    10    11 1   
    18    10    13 1   
    19    10    23 1   
    20    11    12 3   
    21    13    14 1   
    22    13    16 1   
    23    14    15 2   
    24    14    24 1   
    25    16    25 1   
    26    16    26 1   
@<TRIPOS>SUBSTRUCTURE
     1 C8Y         1 TEMP              0 ****  ****    0 ROOT
