@<TRIPOS>MOLECULE
C8Y
   26    26     1     0     0
SMALL
abcg2


@<TRIPOS>ATOM
      1 OAE          9.5650    -2.3860     1.5620 o          1 C8Y      -0.711200
      2 SAP          9.0380    -1.6810     0.4020 s6         1 C8Y       1.500300
      3 OAC          8.1990    -2.5190    -0.4510 o          1 C8Y      -0.711200
      4 OAD          8.5080    -0.3580     0.6820 o          1 C8Y      -0.711200
      5 OAL         10.3280    -1.2870    -0.5320 os         1 C8Y      -0.432000
      6 NAK         10.9820    -2.4580    -1.1400 n7         1 C8Y      -0.521900
      7 CAN         11.5370    -2.0380    -2.4330 c6         1 C8Y       0.127500
      8 CAI         12.8090    -1.1940    -2.2950 c6         1 C8Y      -0.050400
      9 CAH         12.5370     0.2840    -2.0190 c6         1 C8Y      -0.077400
     10 CAM         11.5420     0.8760    -3.0320 c6         1 C8Y       0.161800
     11 CAF         12.1500     1.0270    -4.3650 c1         1 C8Y       0.309900
     12 NAA         12.6350     1.1370    -5.4020 n1         1 C8Y      -0.505000
     13 NAO         10.3480     0.0490    -3.1230 n          1 C8Y      -0.406800
     14 CAG          9.1490     0.5560    -2.7710 c          1 C8Y       0.622900
     15 OAB          8.9370     1.7240    -2.4670 o          1 C8Y      -0.604100
     16 CAJ         10.5400    -1.3730    -3.3950 c6         1 C8Y       0.092000
     17 H1          10.1950    -3.0750    -1.3500 hn         1 C8Y       0.400000
     18 H2          11.8160    -2.9950    -2.8820 h1         1 C8Y       0.046700
     19 H3          13.4350    -1.6130    -1.5070 hc         1 C8Y       0.042200
     20 H4          13.3680    -1.2860    -3.2310 hc         1 C8Y       0.042200
     21 H5          13.4640     0.8570    -2.0550 hc         1 C8Y       0.069200
     22 H6          12.0970     0.4190    -1.0320 hc         1 C8Y       0.069200
     23 H7          11.2230     1.8680    -2.7100 h1         1 C8Y       0.109700
     24 H8           8.3540    -0.2010    -2.7830 h5         1 C8Y       0.036200
     25 H9           9.5690    -1.8620    -3.3410 h1         1 C8Y       0.050700
     26 H10         10.9150    -1.4890    -4.4150 h1         1 C8Y       0.050700
@<TRIPOS>BOND
     1     1     2 1   
     2     2     3 1   
     3     2     4 1   
     4     2     5 1   
     5     5     6 1   
     6     6     7 1   
     7     6    17 1   
     8     7     8 1   
     9     7    16 1   
    10     7    18 1   
    11     8     9 1   
    12     8    19 1   
    13     8    20 1   
    14     9    10 1   
    15     9    21 1   
    16     9    22 1   
    17    10    11 1   
    18    10    13 1   
    19    10    23 1   
    20    11    12 3   
    21    13    14 1   
    22    13    16 1   
    23    14    15 2   
    24    14    24 1   
    25    16    25 1   
    26    16    26 1   
@<TRIPOS>SUBSTRUCTURE
     1 C8Y         1 TEMP              0 ****  ****    0 ROOT
