@<TRIPOS>MOLECULE
C8Z
   37    40     1     0     0
SMALL
No Charge or Current Charge


@<TRIPOS>ATOM
      1 C1          -3.1260    -0.5750     0.3750 ca         1 C8Z       0.398500
      2 C2          -1.7850    -0.2560     0.3840 ca         1 C8Z      -0.200800
      3 C3          -1.0820    -1.4270     0.8620 cc         1 C8Z      -0.219200
      4 C7           1.9710     2.7590    -0.4450 c5         1 C8Z      -0.093400
      5 C8           2.0780     2.0420     0.9220 c5         1 C8Z      -0.089400
      6 C9           1.1170     0.8320     0.7240 c5         1 C8Z       0.284800
      7 C10          1.9320    -0.2550    -0.0090 ca         1 C8Z      -0.097300
      8 C11          2.8940    -0.9980     0.7100 ca         1 C8Z      -0.100000
      9 C12          3.6450    -2.0070     0.0820 ca         1 C8Z      -0.110000
     10 C13          3.4400    -2.2930    -1.2760 ca         1 C8Z      -0.109000
     11 C14          2.4810    -1.5710    -2.0040 ca         1 C8Z      -0.110000
     12 C15          1.7310    -0.5620    -1.3760 ca         1 C8Z      -0.100000
     13 C16         -2.3540     1.8960    -0.4720 ca         1 C8Z      -0.309000
     14 N1          -3.3010    -1.8650     0.8320 na         1 C8Z      -0.326400
     15 C5          -1.3430     1.0180    -0.0430 ca         1 C8Z       0.430000
     16 C4          -2.0280    -2.3970     1.1310 cd         1 C8Z      -0.181100
     17 N2           0.0150     1.4530    -0.0640 nh         1 C8Z      -0.824400
     18 C6           0.4380     2.7550    -0.6600 c5         1 C8Z       0.222800
     19 C17         -3.6920     1.4890    -0.4480 ca         1 C8Z       0.399900
     20 N3          -4.0850     0.2690    -0.0290 nb         1 C8Z      -0.728000
     21 H1          -0.0160    -1.5770     0.9860 ha         1 C8Z       0.204000
     22 H2           2.3850     3.7720    -0.4280 hc         1 C8Z       0.057200
     23 H3           2.4890     2.2070    -1.2370 hc         1 C8Z       0.057200
     24 H4           3.1040     1.7510     1.1710 hc         1 C8Z       0.057700
     25 H5           1.7240     2.6890     1.7340 hc         1 C8Z       0.057700
     26 H6           0.7710     0.4650     1.7020 h1         1 C8Z       0.073700
     27 H7           3.0610    -0.7910     1.7650 ha         1 C8Z       0.115500
     28 H8           4.3840    -2.5670     0.6510 ha         1 C8Z       0.112000
     29 H9           4.0200    -3.0750    -1.7630 ha         1 C8Z       0.112000
     30 H10          2.3170    -1.7940    -3.0560 ha         1 C8Z       0.112000
     31 H11          0.9910    -0.0200    -1.9590 ha         1 C8Z       0.115500
     32 H12         -2.1320     2.8960    -0.8210 ha         1 C8Z       0.115000
     33 H13         -4.1950    -2.3320     0.9220 hn         1 C8Z       0.357000
     34 H14         -1.8920    -3.4130     1.5010 h4         1 C8Z       0.212000
     35 H15         -0.0250     3.5980    -0.1280 h1         1 C8Z       0.046200
     36 H16          0.1830     2.8320    -1.7260 h1         1 C8Z       0.046200
     37 H17         -4.4810     2.1650    -0.7760 h4         1 C8Z       0.010100
@<TRIPOS>BOND
     1     1     2 ar  
     2     1    14 1   
     3     1    20 ar  
     4     2     3 1   
     5     2    15 ar  
     6     3    16 2   
     7     3    21 1   
     8     4     5 1   
     9     4    18 1   
    10     4    22 1   
    11     4    23 1   
    12     5     6 1   
    13     5    24 1   
    14     5    25 1   
    15     6     7 1   
    16     6    17 1   
    17     6    26 1   
    18     7     8 ar  
    19     7    12 ar  
    20     8     9 ar  
    21     8    27 1   
    22     9    10 ar  
    23     9    28 1   
    24    10    11 ar  
    25    10    29 1   
    26    11    12 ar  
    27    11    30 1   
    28    12    31 1   
    29    13    15 ar  
    30    13    19 ar  
    31    13    32 1   
    32    14    16 1   
    33    14    33 1   
    34    15    17 1   
    35    16    34 1   
    36    17    18 1   
    37    18    35 1   
    38    18    36 1   
    39    19    20 ar  
    40    19    37 1   
@<TRIPOS>SUBSTRUCTURE
     1 C8Z         1 TEMP              0 ****  ****    0 ROOT
