@<TRIPOS>MOLECULE
C8Z
   37    40     1     0     0
SMALL
bcc


@<TRIPOS>ATOM
      1 C1          -2.9830    -0.5820     0.3420 ca         1 C8Z       0.463800
      2 C2          -1.6100    -0.2610     0.4570 ca         1 C8Z      -0.266100
      3 C3          -0.9950    -1.3770     1.1190 cc         1 C8Z      -0.169200
      4 C7           1.9230     2.8820    -0.2850 c5         1 C8Z      -0.093400
      5 C8           2.0980     2.0390     0.9690 c5         1 C8Z      -0.089400
      6 C9           1.1640     0.8480     0.7130 c5         1 C8Z       0.284800
      7 C10          1.8640    -0.2580    -0.0510 ca         1 C8Z      -0.097300
      8 C11          2.7760    -1.0670     0.6240 ca         1 C8Z      -0.118000
      9 C12          3.4620    -2.0730    -0.0400 ca         1 C8Z      -0.128000
     10 C13          3.2430    -2.2870    -1.3960 ca         1 C8Z      -0.127000
     11 C14          2.3340    -1.4870    -2.0740 ca         1 C8Z      -0.128000
     12 C15          1.6470    -0.4800    -1.4050 ca         1 C8Z      -0.118000
     13 C16         -2.2160     1.7460    -0.6800 ca         1 C8Z      -0.392300
     14 N1          -3.1730    -1.8020     0.9090 na         1 C8Z      -0.276100
     15 C5          -1.1970     0.9880    -0.0730 ca         1 C8Z       0.291600
     16 C4          -1.9810    -2.2820     1.3740 cd         1 C8Z      -0.131100
     17 N2           0.0710     1.4600    -0.0200 nh         1 C8Z      -0.686000
     18 C6           0.4320     2.7600    -0.5720 c5         1 C8Z       0.222800
     19 C17         -3.5270     1.2880    -0.7190 ca         1 C8Z       0.465200
     20 N3          -3.9510     0.1390    -0.2170 nb         1 C8Z      -0.728000
     21 H1           0.0420    -1.5250     1.3650 ha         1 C8Z       0.154000
     22 H2           2.2260     3.9190    -0.1480 hc         1 C8Z       0.057200
     23 H3           2.5070     2.4720    -1.1110 hc         1 C8Z       0.057200
     24 H4           3.1260     1.7290     1.1530 hc         1 C8Z       0.057700
     25 H5           1.7510     2.5870     1.8480 hc         1 C8Z       0.057700
     26 H6           0.8070     0.4540     1.6680 h1         1 C8Z       0.073700
     27 H7           2.9500    -0.9110     1.6830 ha         1 C8Z       0.133500
     28 H8           4.1640    -2.6930     0.5020 ha         1 C8Z       0.130000
     29 H9           3.7740    -3.0710    -1.9190 ha         1 C8Z       0.130000
     30 H10          2.1540    -1.6470    -3.1300 ha         1 C8Z       0.130000
     31 H11          0.9350     0.1280    -1.9480 ha         1 C8Z       0.133500
     32 H12         -2.0020     2.7070    -1.1240 ha         1 C8Z       0.133000
     33 H13         -4.0600    -2.2730     0.9760 hn         1 C8Z       0.306700
     34 H14         -1.9220    -3.2450     1.8540 h4         1 C8Z       0.162000
     35 H15         -0.1330     3.5590    -0.0790 h1         1 C8Z       0.046200
     36 H16          0.2120     2.8150    -1.6410 h1         1 C8Z       0.046200
     37 H17         -4.2790     1.9130    -1.1910 h4         1 C8Z       0.010100
@<TRIPOS>BOND
     1     1     2 ar  
     2     1    14 1   
     3     1    20 ar  
     4     2     3 1   
     5     2    15 ar  
     6     3    16 2   
     7     3    21 1   
     8     4     5 1   
     9     4    18 1   
    10     4    22 1   
    11     4    23 1   
    12     5     6 1   
    13     5    24 1   
    14     5    25 1   
    15     6     7 1   
    16     6    17 1   
    17     6    26 1   
    18     7     8 ar  
    19     7    12 ar  
    20     8     9 ar  
    21     8    27 1   
    22     9    10 ar  
    23     9    28 1   
    24    10    11 ar  
    25    10    29 1   
    26    11    12 ar  
    27    11    30 1   
    28    12    31 1   
    29    13    15 ar  
    30    13    19 ar  
    31    13    32 1   
    32    14    16 1   
    33    14    33 1   
    34    15    17 1   
    35    16    34 1   
    36    17    18 1   
    37    18    35 1   
    38    18    36 1   
    39    19    20 ar  
    40    19    37 1   
@<TRIPOS>SUBSTRUCTURE
     1 C8Z         1 TEMP              0 ****  ****    0 ROOT
