@<TRIPOS>MOLECULE
C90
   59    61     1     0     0
SMALL
bcc


@<TRIPOS>ATOM
      1 C5          -7.5510    -0.4260    -1.4180 c3         1 C90       0.211100
      2 C6          -6.0810    -0.2600    -1.1430 ca         1 C90      -0.075300
      3 C9          -3.3370     0.0860    -0.6760 ca         1 C90       0.022000
      4 C10         -1.9460     0.2620    -0.4410 cg         1 C90      -0.084000
      5 O1         -10.3980    -0.5820     1.6620 os         1 C90      -0.402600
      6 C11         -0.7630     0.4100    -0.2460 ch         1 C90      -0.120000
      7 C12          0.6280     0.5770    -0.0130 ca         1 C90       0.059000
      8 C19          7.6750    -0.5940     1.4170 c3         1 C90       0.146100
      9 C15          3.3730     0.9030     0.4300 ca         1 C90      -0.148600
     10 C16          4.8280     1.1370     0.6770 c          1 C90       0.683700
     11 C18          7.0960     0.2840     0.2850 c3         1 C90      -0.011300
     12 C21          7.1640    -0.1770     2.7850 c3         1 C90      -0.127100
     13 C22          7.6740    -0.1620    -1.0570 c          1 C90       0.666100
     14 CA1         -9.0340    -0.6930     2.0040 c6         1 C90       0.130400
     15 CA2        -10.5800     0.3550     0.6240 c6         1 C90       0.130400
     16 CB1         -8.1870    -1.0800     0.8070 c6         1 C90       0.125300
     17 CB2         -9.7710    -0.0100    -0.6060 c6         1 C90       0.125300
     18 N4          -8.3640    -0.1140    -0.2620 n3         1 C90      -0.715600
     19 CC1         -5.1730    -1.2620    -1.4670 ca         1 C90      -0.119500
     20 CC2         -5.6000     0.9190    -0.5730 ca         1 C90      -0.119500
     21 CD1         -3.8160    -1.0980    -1.2410 ca         1 C90      -0.106500
     22 CD2         -4.2490     1.0960    -0.3440 ca         1 C90      -0.106500
     23 CE1          1.4830    -0.5300    -0.0140 ca         1 C90      -0.118500
     24 CE2          1.1630     1.8470     0.2270 ca         1 C90      -0.118500
     25 CF1          2.8390    -0.3650     0.2050 ca         1 C90      -0.088500
     26 CF           2.5170     2.0020     0.4520 ca         1 C90      -0.088500
     27 O16          5.2160     2.1310     1.2720 o          1 C90      -0.601100
     28 N17          5.6610     0.1880     0.2020 ns         1 C90      -0.565900
     29 N23          8.9550     0.2020    -1.2220 ns         1 C90      -0.446400
     30 O22          7.0420    -0.8190    -1.8620 o          1 C90      -0.568100
     31 O24          9.5790    -0.0330    -2.4090 oh         1 C90      -0.383100
     32 H51         -7.8370     0.2570    -2.2240 h1         1 C90       0.041200
     33 H52         -7.7410    -1.4450    -1.7950 h1         1 C90       0.041200
     34 H19          8.7600    -0.4650     1.4020 h1         1 C90       0.070700
     35 H18          7.3750     1.3230     0.4800 h1         1 C90       0.092700
     36 H211         7.6530    -0.7660     3.5610 hc         1 C90       0.051033
     37 H212         7.3740     0.8750     2.9780 hc         1 C90       0.051033
     38 H213         6.0870    -0.3280     2.8790 hc         1 C90       0.051033
     39 HA11        -8.6630     0.2560     2.4180 h1         1 C90       0.050950
     40 HA12        -8.9520    -1.4530     2.7820 h1         1 C90       0.050950
     41 HA21       -11.6430     0.3720     0.3800 h1         1 C90       0.050950
     42 HA22       -10.2930     1.3620     0.9600 h1         1 C90       0.050950
     43 HB11        -7.1390    -1.1060     1.1140 h1         1 C90       0.043200
     44 HB12        -8.4560    -2.0990     0.4770 h1         1 C90       0.043200
     45 HB21       -10.1580    -0.9490    -1.0370 h1         1 C90       0.043200
     46 HB22        -9.9030     0.7700    -1.3600 h1         1 C90       0.043200
     47 HC1         -5.5310    -2.1890    -1.9000 ha         1 C90       0.139500
     48 HC2         -6.2960     1.7030    -0.3030 ha         1 C90       0.139500
     49 HD1         -3.1240    -1.8890    -1.4970 ha         1 C90       0.138500
     50 HD2         -3.8900     2.0170     0.0960 ha         1 C90       0.138500
     51 HE1          1.0810    -1.5200    -0.1820 ha         1 C90       0.143500
     52 HE2          0.5110     2.7100     0.2330 ha         1 C90       0.143500
     53 HF1          3.4640    -1.2480     0.2260 ha         1 C90       0.145000
     54 HF           2.9140     2.9910     0.6380 ha         1 C90       0.145000
     55 HN17         5.3030    -0.4920    -0.4520 hn         1 C90       0.340500
     56 HN23         9.3970     0.9040    -0.6450 hn         1 C90       0.337500
     57 HO24        10.0910    -0.8440    -2.2880 ho         1 C90       0.411000
     58 O20          7.4450    -1.9580     1.1540 oh         1 C90      -0.588800
     59 HO20         6.5100    -2.1430     1.2930 ho         1 C90       0.409000
@<TRIPOS>BOND
     1     1     2 1   
     2     1    18 1   
     3     1    32 1   
     4     1    33 1   
     5     2    19 ar  
     6     2    20 ar  
     7     3     4 1   
     8     3    21 ar  
     9     3    22 ar  
    10     4     6 3   
    11     5    14 1   
    12     5    15 1   
    13     6     7 1   
    14     7    23 ar  
    15     7    24 ar  
    16     8    11 1   
    17     8    12 1   
    18     8    34 1   
    19     8    58 1   
    20     9    10 1   
    21     9    25 ar  
    22     9    26 ar  
    23    10    27 2   
    24    10    28 1   
    25    11    13 1   
    26    11    28 1   
    27    11    35 1   
    28    12    36 1   
    29    12    37 1   
    30    12    38 1   
    31    13    29 1   
    32    13    30 2   
    33    14    16 1   
    34    14    39 1   
    35    14    40 1   
    36    15    17 1   
    37    15    41 1   
    38    15    42 1   
    39    16    18 1   
    40    16    43 1   
    41    16    44 1   
    42    17    18 1   
    43    17    45 1   
    44    17    46 1   
    45    19    21 ar  
    46    19    47 1   
    47    20    22 ar  
    48    20    48 1   
    49    21    49 1   
    50    22    50 1   
    51    23    25 ar  
    52    23    51 1   
    53    24    26 ar  
    54    24    52 1   
    55    25    53 1   
    56    26    54 1   
    57    28    55 1   
    58    29    31 1   
    59    29    56 1   
    60    31    57 1   
    61    58    59 1   
@<TRIPOS>SUBSTRUCTURE
     1 C90         1 TEMP              0 ****  ****    0 ROOT
