@<TRIPOS>MOLECULE
C90
   59    61     1     0     0
SMALL
No Charge or Current Charge


@<TRIPOS>ATOM
      1 C5          -7.6680    -0.2720    -1.4770 c3         1 C90       0.211100
      2 C6          -6.1700    -0.1280    -1.2210 ca         1 C90      -0.075300
      3 C9          -3.4000     0.1480    -0.7420 ca         1 C90       0.022000
      4 C10         -1.9940     0.2880    -0.4980 cg         1 C90      -0.084000
      5 O1         -10.4800    -0.8420     1.7240 os         1 C90      -0.449000
      6 C11         -0.7970     0.4170    -0.2980 ch         1 C90      -0.120000
      7 C12          0.6010     0.5810    -0.0760 ca         1 C90       0.059000
      8 C19          7.7280    -0.5830     1.5040 c3         1 C90       0.169300
      9 C15          3.3870     0.9080     0.3660 ca         1 C90      -0.148600
     10 C16          4.8660     1.1170     0.6240 c          1 C90       0.616700
     11 C18          7.2110     0.1830     0.2480 c3         1 C90      -0.011300
     12 C21          7.3830     0.1100     2.8380 c3         1 C90      -0.127100
     13 C22          7.8660    -0.3710    -1.0490 c          1 C90       0.599100
     14 CA1         -9.0770    -0.8360     2.0850 c6         1 C90       0.153600
     15 CA2        -10.8060     0.1630     0.7340 c6         1 C90       0.153600
     16 CB1         -8.1920    -1.0730     0.8240 c6         1 C90       0.125300
     17 CB2         -9.9590    -0.0540    -0.5560 c6         1 C90       0.125300
     18 N4          -8.4930    -0.0830    -0.2590 n3         1 C90      -0.715600
     19 CC1         -5.3180    -1.2470    -1.3080 ca         1 C90      -0.101500
     20 CC2         -5.6260     1.1300    -0.8930 ca         1 C90      -0.101500
     21 CD1         -3.9390    -1.1090    -1.0690 ca         1 C90      -0.088500
     22 CD2         -4.2470     1.2680    -0.6540 ca         1 C90      -0.088500
     23 CE1          1.5110    -0.3760    -0.5540 ca         1 C90      -0.100500
     24 CE2          1.0800     1.7010     0.6240 ca         1 C90      -0.100500
     25 CF1          2.8910    -0.2190    -0.3370 ca         1 C90      -0.070500
     26 CF           2.4590     1.8630     0.8430 ca         1 C90      -0.070500
     27 O16          5.2880     2.0880     1.2380 o          1 C90      -0.601100
     28 N17          5.7250     0.1600     0.1250 ns         1 C90      -0.498900
     29 N23          9.2340    -0.1340    -1.1740 ns         1 C90      -0.379400
     30 O22          7.2290    -0.9660    -1.9130 o          1 C90      -0.568100
     31 O24          9.9170    -0.3570    -2.4330 oh         1 C90      -0.422100
     32 H51         -7.9520     0.4720    -2.2340 h1         1 C90       0.041200
     33 H52         -7.8670    -1.2590    -1.9150 h1         1 C90       0.041200
     34 H19          8.8250    -0.6340     1.4470 h1         1 C90       0.070700
     35 H18          7.5400     1.2280     0.3250 h1         1 C90       0.092700
     36 H211         7.8410    -0.4270     3.6770 hc         1 C90       0.051033
     37 H212         7.7650     1.1380     2.8470 hc         1 C90       0.051033
     38 H213         6.3000     0.1430     3.0050 hc         1 C90       0.051033
     39 HA11        -8.8250     0.1310     2.5430 h1         1 C90       0.050950
     40 HA12        -8.8910    -1.6250     2.8260 h1         1 C90       0.050950
     41 HA21       -11.8760     0.0990     0.4950 h1         1 C90       0.050950
     42 HA22       -10.6060     1.1610     1.1510 h1         1 C90       0.050950
     43 HB11        -7.1360    -1.0090     1.1250 h1         1 C90       0.043200
     44 HB12        -8.3620    -2.0980     0.4630 h1         1 C90       0.043200
     45 HB21       -10.2720    -0.9990    -1.0260 h1         1 C90       0.043200
     46 HB22       -10.1890     0.7520    -1.2680 h1         1 C90       0.043200
     47 HC1         -5.7240    -2.2250    -1.5580 ha         1 C90       0.121500
     48 HC2         -6.2760     1.9980    -0.8180 ha         1 C90       0.121500
     49 HD1         -3.2910    -1.9810    -1.1390 ha         1 C90       0.120500
     50 HD2         -3.8400     2.2440    -0.3990 ha         1 C90       0.120500
     51 HE1          1.1490    -1.2470    -1.0960 ha         1 C90       0.125500
     52 HE2          0.3840     2.4480     0.9990 ha         1 C90       0.125500
     53 HF1          3.5580    -0.9850    -0.7240 ha         1 C90       0.127000
     54 HF           2.8040     2.7390     1.3880 ha         1 C90       0.127000
     55 HN17         5.3100    -0.5770    -0.4330 hn         1 C90       0.340500
     56 HN23         9.6960     0.4990    -0.5210 hn         1 C90       0.337500
     57 HO24        10.7020    -0.8980    -2.1810 ho         1 C90       0.450000
     58 O20          7.1870    -1.9080     1.5310 oh         1 C90      -0.651000
     59 HO20         6.2200    -1.8150     1.6680 ho         1 C90       0.448000
@<TRIPOS>BOND
     1     1     2 1   
     2     1    18 1   
     3     1    32 1   
     4     1    33 1   
     5     2    19 ar  
     6     2    20 ar  
     7     3     4 1   
     8     3    21 ar  
     9     3    22 ar  
    10     4     6 3   
    11     5    14 1   
    12     5    15 1   
    13     6     7 1   
    14     7    23 ar  
    15     7    24 ar  
    16     8    11 1   
    17     8    12 1   
    18     8    34 1   
    19     8    58 1   
    20     9    10 1   
    21     9    25 ar  
    22     9    26 ar  
    23    10    27 2   
    24    10    28 1   
    25    11    13 1   
    26    11    28 1   
    27    11    35 1   
    28    12    36 1   
    29    12    37 1   
    30    12    38 1   
    31    13    29 1   
    32    13    30 2   
    33    14    16 1   
    34    14    39 1   
    35    14    40 1   
    36    15    17 1   
    37    15    41 1   
    38    15    42 1   
    39    16    18 1   
    40    16    43 1   
    41    16    44 1   
    42    17    18 1   
    43    17    45 1   
    44    17    46 1   
    45    19    21 ar  
    46    19    47 1   
    47    20    22 ar  
    48    20    48 1   
    49    21    49 1   
    50    22    50 1   
    51    23    25 ar  
    52    23    51 1   
    53    24    26 ar  
    54    24    52 1   
    55    25    53 1   
    56    26    54 1   
    57    28    55 1   
    58    29    31 1   
    59    29    56 1   
    60    31    57 1   
    61    58    59 1   
@<TRIPOS>SUBSTRUCTURE
     1 C90         1 TEMP              0 ****  ****    0 ROOT
