@<TRIPOS>MOLECULE
C91
   47    51     1     0     0
SMALL
bcc


@<TRIPOS>ATOM
      1 O            0.0950    -0.7770     0.8330 o          1 C91      -0.557100
      2 C13          0.0070    -0.5560    -0.3570 c          1 C91       0.675100
      3 N4          -1.1150    -0.1320    -0.9800 ns         1 C91      -0.483100
      4 C4          -2.3500     0.1180    -0.3590 ca         1 C91       0.070600
      5 C2          -2.4150     0.8120     0.8740 ca         1 C91      -0.121000
      6 C5          -3.6270     1.0820     1.4420 ca         1 C91      -0.102000
      7 C18         -4.8360     0.6910     0.8200 ca         1 C91      -0.049000
      8 C25         -6.1000     0.9640     1.3900 ca         1 C91      -0.109000
      9 C26         -7.2490     0.5760     0.7550 ca         1 C91      -0.131000
     10 C27         -7.1830    -0.1010    -0.4810 ca         1 C91      -0.120000
     11 C28         -5.9730    -0.3770    -1.0570 ca         1 C91      -0.123000
     12 C16         -4.7680     0.0120    -0.4230 ca         1 C91      -0.016000
     13 C12         -3.5050    -0.2690    -0.9880 ca         1 C91      -0.166000
     14 C17          1.1650    -0.8040    -1.3120 c3         1 C91      -0.020700
     15 N1           2.4180    -0.8680    -0.6120 na         1 C91      -0.114300
     16 C6           3.0960     0.1280     0.0390 cc         1 C91       0.368800
     17 C37          2.6590     1.5260     0.1160 ca         1 C91       0.409000
     18 C38          3.4890     2.4750     0.7100 ca         1 C91      -0.195300
     19 C39          3.0460     3.7840     0.7790 ca         1 C91      -0.096000
     20 C40          1.8000     4.1040     0.2580 ca         1 C91      -0.238300
     21 C41          1.0500     3.0880    -0.3140 ca         1 C91       0.407200
     22 N42          1.4680     1.8330    -0.3850 nb         1 C91      -0.695000
     23 N3           4.1970    -0.2950     0.6020 nd         1 C91      -0.571100
     24 C11          4.2610    -1.6330     0.3320 ca         1 C91       0.075400
     25 C10          3.1430    -2.0180    -0.4240 ca         1 C91      -0.070200
     26 C1           2.9450    -3.3300    -0.8410 ca         1 C91      -0.132000
     27 C3           3.9090    -4.2520    -0.4740 ca         1 C91      -0.109000
     28 C14          5.0340    -3.8820     0.2820 ca         1 C91      -0.152000
     29 C9           5.2240    -2.5770     0.6930 ca         1 C91      -0.065000
     30 H1          -1.1010    -0.0790    -1.9880 hn         1 C91       0.317500
     31 H2          -1.5090     1.1500     1.3540 ha         1 C91       0.155000
     32 H3          -3.6690     1.6200     2.3810 ha         1 C91       0.135000
     33 H4          -6.1480     1.4870     2.3380 ha         1 C91       0.132000
     34 H5          -8.2130     0.7870     1.1990 ha         1 C91       0.131000
     35 H6          -8.0980    -0.4010    -0.9750 ha         1 C91       0.130000
     36 H7          -5.9240    -0.8990    -2.0050 ha         1 C91       0.129000
     37 H8          -3.4560    -0.8000    -1.9330 ha         1 C91       0.130000
     38 H9           1.0040    -1.7660    -1.8030 h1         1 C91       0.076700
     39 H10          1.1950    -0.0510    -2.0970 h1         1 C91       0.076700
     40 H11          4.4530     2.1880     1.1060 ha         1 C91       0.171000
     41 H12          3.6660     4.5460     1.2330 ha         1 C91       0.142000
     42 H13          1.4180     5.1140     0.2930 ha         1 C91       0.144000
     43 H14          0.0710     3.2940    -0.7320 h4         1 C91       0.021100
     44 H15          2.0840    -3.6330    -1.4230 ha         1 C91       0.132000
     45 H16          3.7930    -5.2840    -0.7770 ha         1 C91       0.130000
     46 H17          5.7610    -4.6380     0.5460 ha         1 C91       0.132000
     47 H18          6.0900    -2.2900     1.2750 ha         1 C91       0.146000
@<TRIPOS>BOND
     1     1     2 2   
     2     2     3 1   
     3     2    14 1   
     4     3     4 1   
     5     3    30 1   
     6     4     5 ar  
     7     4    13 ar  
     8     5     6 ar  
     9     5    31 1   
    10     6     7 ar  
    11     6    32 1   
    12     7     8 ar  
    13     7    12 ar  
    14     8     9 ar  
    15     8    33 1   
    16     9    10 ar  
    17     9    34 1   
    18    10    11 ar  
    19    10    35 1   
    20    11    12 ar  
    21    11    36 1   
    22    12    13 ar  
    23    13    37 1   
    24    14    15 1   
    25    14    38 1   
    26    14    39 1   
    27    15    16 1   
    28    15    25 1   
    29    16    17 1   
    30    16    23 2   
    31    17    18 ar  
    32    17    22 ar  
    33    18    19 ar  
    34    18    40 1   
    35    19    20 ar  
    36    19    41 1   
    37    20    21 ar  
    38    20    42 1   
    39    21    22 ar  
    40    21    43 1   
    41    23    24 1   
    42    24    25 ar  
    43    24    29 ar  
    44    25    26 ar  
    45    26    27 ar  
    46    26    44 1   
    47    27    28 ar  
    48    27    45 1   
    49    28    29 ar  
    50    28    46 1   
    51    29    47 1   
@<TRIPOS>SUBSTRUCTURE
     1 C91         1 TEMP              0 ****  ****    0 ROOT
