@<TRIPOS>MOLECULE
C91
   47    51     1     0     0
SMALL
No Charge or Current Charge


@<TRIPOS>ATOM
      1 O            0.1480    -1.3260     1.1220 o          1 C91      -0.557100
      2 C13         -0.0010    -1.0550    -0.0660 c          1 C91       0.608100
      3 N4          -1.1880    -0.5820    -0.6140 ns         1 C91      -0.157000
      4 C4          -2.4460    -0.2550    -0.0370 ca         1 C91      -0.022000
      5 C2          -2.6930    -0.2540     1.3540 ca         1 C91      -0.103000
      6 C5          -3.9630     0.0880     1.8510 ca         1 C91      -0.084000
      7 C18         -5.0010     0.4350     0.9680 ca         1 C91      -0.049000
      8 C25         -6.2740     0.7780     1.4630 ca         1 C91      -0.091000
      9 C26         -7.3050     1.1250     0.5730 ca         1 C91      -0.113000
     10 C27         -7.0670     1.1320    -0.8120 ca         1 C91      -0.102000
     11 C28         -5.7970     0.7900    -1.3100 ca         1 C91      -0.105000
     12 C16         -4.7610     0.4410    -0.4220 ca         1 C91      -0.016000
     13 C12         -3.4890     0.0990    -0.9150 ca         1 C91      -0.148000
     14 C17          1.1310    -1.2260    -1.0950 c3         1 C91       0.008600
     15 N1           2.4920    -1.0290    -0.5350 na         1 C91      -0.143600
     16 C6           3.1330     0.1550    -0.1020 cc         1 C91       0.368800
     17 C37          2.5490     1.5310    -0.1260 ca         1 C91       0.343700
     18 C38          3.3170     2.6180     0.3580 ca         1 C91      -0.112000
     19 C39          2.7860     3.9190     0.3490 ca         1 C91      -0.078000
     20 C40          1.4880     4.1020    -0.1470 ca         1 C91      -0.155000
     21 C41          0.7760     2.9880    -0.6130 ca         1 C91       0.341900
     22 N42          1.2860     1.7350    -0.6070 nb         1 C91      -0.695000
     23 N3           4.3790    -0.1330     0.3520 nd         1 C91      -0.571100
     24 C11          4.4980    -1.5090     0.2040 ca         1 C91       0.075400
     25 C10          3.3660    -2.0620    -0.3270 ca         1 C91      -0.070200
     26 C1           3.2430    -3.4430    -0.5600 ca         1 C91      -0.114000
     27 C3           4.3410    -4.2640    -0.2330 ca         1 C91      -0.091000
     28 C14          5.5180    -3.6990     0.3120 ca         1 C91      -0.134000
     29 C9           5.6020    -2.3080     0.5360 ca         1 C91      -0.047000
     30 H1          -1.1470    -0.4250    -1.6120 hn         1 C91       0.151000
     31 H2          -1.9170    -0.5070     2.0680 ha         1 C91       0.137000
     32 H3          -4.1370     0.0840     2.9250 ha         1 C91       0.117000
     33 H4          -6.4650     0.7760     2.5340 ha         1 C91       0.114000
     34 H5          -8.2880     1.3900     0.9570 ha         1 C91       0.113000
     35 H6          -7.8650     1.4010    -1.5000 ha         1 C91       0.112000
     36 H7          -5.6200     0.7980    -2.3830 ha         1 C91       0.111000
     37 H8          -3.3090     0.1060    -1.9880 ha         1 C91       0.112000
     38 H9           1.0310    -2.2240    -1.5340 h1         1 C91       0.076700
     39 H10          0.9780    -0.5060    -1.9070 h1         1 C91       0.076700
     40 H11          4.3210     2.4540     0.7400 ha         1 C91       0.153000
     41 H12          3.3670     4.7620     0.7190 ha         1 C91       0.124000
     42 H13          1.0340     5.0890    -0.1730 ha         1 C91       0.126000
     43 H14         -0.2340     3.0980    -1.0040 h4         1 C91       0.021100
     44 H15          2.3380    -3.8790    -0.9760 ha         1 C91       0.114000
     45 H16          4.2830    -5.3380    -0.4000 ha         1 C91       0.112000
     46 H17          6.3610    -4.3390     0.5620 ha         1 C91       0.114000
     47 H18          6.5000    -1.8630     0.9570 ha         1 C91       0.128000
@<TRIPOS>BOND
     1     1     2 2   
     2     2     3 1   
     3     2    14 1   
     4     3     4 1   
     5     3    30 1   
     6     4     5 ar  
     7     4    13 ar  
     8     5     6 ar  
     9     5    31 1   
    10     6     7 ar  
    11     6    32 1   
    12     7     8 ar  
    13     7    12 ar  
    14     8     9 ar  
    15     8    33 1   
    16     9    10 ar  
    17     9    34 1   
    18    10    11 ar  
    19    10    35 1   
    20    11    12 ar  
    21    11    36 1   
    22    12    13 ar  
    23    13    37 1   
    24    14    15 1   
    25    14    38 1   
    26    14    39 1   
    27    15    16 1   
    28    15    25 1   
    29    16    17 1   
    30    16    23 2   
    31    17    18 ar  
    32    17    22 ar  
    33    18    19 ar  
    34    18    40 1   
    35    19    20 ar  
    36    19    41 1   
    37    20    21 ar  
    38    20    42 1   
    39    21    22 ar  
    40    21    43 1   
    41    23    24 1   
    42    24    25 ar  
    43    24    29 ar  
    44    25    26 ar  
    45    26    27 ar  
    46    26    44 1   
    47    27    28 ar  
    48    27    45 1   
    49    28    29 ar  
    50    28    46 1   
    51    29    47 1   
@<TRIPOS>SUBSTRUCTURE
     1 C91         1 TEMP              0 ****  ****    0 ROOT
