@<TRIPOS>MOLECULE
C93
   32    33     1     0     0
SMALL
abcg2


@<TRIPOS>ATOM
      1 O12         -3.3210    -1.4570    -0.9770 o          1 C93      -0.728000
      2 C10         -3.5530    -0.3810    -0.3980 c          1 C93       0.712600
      3 O11         -4.6740     0.0390    -0.0400 o          1 C93      -0.728000
      4 C1          -2.3600     0.5230    -0.1110 ca         1 C93      -0.117600
      5 C6          -2.6050     1.8670     0.1790 ca         1 C93      -0.109000
      6 C5          -1.5670     2.7400     0.4450 ca         1 C93      -0.179000
      7 C4          -0.2590     2.2750     0.4240 ca         1 C93      -0.188000
      8 C3           0.0100     0.9360     0.1510 ca         1 C93       0.207000
      9 C2          -1.0440     0.0480    -0.1260 ca         1 C93      -0.060600
     10 C7          -0.7000    -1.4270    -0.2910 c          1 C93       0.769600
     11 O9          -0.3010    -1.8100    -1.4060 o          1 C93      -0.740000
     12 O8          -0.8010    -2.1080     0.7450 o          1 C93      -0.740000
     13 N13          1.3350     0.4360     0.1510 nh         1 C93      -0.744400
     14 C18          2.2420     0.9980     1.1300 c6         1 C93       0.199800
     15 C17          3.4700     0.1080     1.2690 c6         1 C93      -0.092400
     16 C16          4.1640    -0.0500    -0.0730 c6         1 C93       0.165300
     17 O19          5.2620    -0.9240     0.0910 oh         1 C93      -0.676000
     18 C15          3.1710    -0.5420    -1.1180 c6         1 C93      -0.092400
     19 C14          1.9500     0.3630    -1.1660 c6         1 C93       0.199800
     20 H2          -3.6280     2.2200     0.2040 ha         1 C93       0.105000
     21 H3          -1.7680     3.7820     0.6650 ha         1 C93       0.056000
     22 H4           0.5550     2.9610     0.6290 ha         1 C93       0.058000
     23 H6           2.5740     2.0170     0.8650 h1         1 C93       0.026950
     24 H7           1.7300     1.0740     2.0910 h1         1 C93       0.026950
     25 H8           4.1550     0.5470     2.0000 hc         1 C93       0.048200
     26 H9           3.1650    -0.8730     1.6450 hc         1 C93       0.048200
     27 H10          4.5150     0.9470    -0.3890 h1         1 C93      -0.001300
     28 H11          5.6950    -1.0240    -0.7620 ho         1 C93       0.422000
     29 H12          3.6440    -0.5760    -2.1040 hc         1 C93       0.048200
     30 H13          2.8450    -1.5560    -0.8700 hc         1 C93       0.048200
     31 H14          1.2250    -0.0340    -1.8710 h1         1 C93       0.026950
     32 H15          2.2440     1.3680    -1.5200 h1         1 C93       0.026950
@<TRIPOS>BOND
     1     1     2 1   
     2     2     3 1   
     3     2     4 1   
     4     4     5 ar  
     5     4     9 ar  
     6     5     6 ar  
     7     5    20 1   
     8     6     7 ar  
     9     6    21 1   
    10     7     8 ar  
    11     7    22 1   
    12     8     9 ar  
    13     8    13 1   
    14     9    10 1   
    15    10    11 1   
    16    10    12 1   
    17    13    14 1   
    18    13    19 1   
    19    14    15 1   
    20    14    23 1   
    21    14    24 1   
    22    15    16 1   
    23    15    25 1   
    24    15    26 1   
    25    16    17 1   
    26    16    18 1   
    27    16    27 1   
    28    17    28 1   
    29    18    19 1   
    30    18    29 1   
    31    18    30 1   
    32    19    31 1   
    33    19    32 1   
@<TRIPOS>SUBSTRUCTURE
     1 C93         1 TEMP              0 ****  ****    0 ROOT
