@<TRIPOS>MOLECULE
C93
   32    33     1     0     0
SMALL
No Charge or Current Charge


@<TRIPOS>ATOM
      1 O12         -3.6470    -1.1320    -1.1930 o          1 C93      -0.728000
      2 C10         -3.5550    -0.4650    -0.1720 c          1 C93       0.712600
      3 O11         -4.4040    -0.4660     0.7090 o          1 C93      -0.728000
      4 C1          -2.4060     0.5040    -0.0480 ca         1 C93      -0.117600
      5 C6          -2.6750     1.8780     0.1230 ca         1 C93      -0.109000
      6 C5          -1.6260     2.7980     0.2480 ca         1 C93      -0.179000
      7 C4          -0.2980     2.3510     0.2150 ca         1 C93      -0.188000
      8 C3          -0.0010     0.9820     0.0540 ca         1 C93       0.207000
      9 C2          -1.0590     0.0530    -0.0880 ca         1 C93      -0.060600
     10 C7          -0.7560    -1.4170    -0.2180 c          1 C93       0.769600
     11 O9          -0.4220    -1.8590    -1.3120 o          1 C93      -0.740000
     12 O8          -0.9350    -2.1280     0.7650 o          1 C93      -0.740000
     13 N13          1.3510     0.5730     0.0560 nh         1 C93      -0.744400
     14 C18          2.2300     0.9580     1.1930 c6         1 C93       0.199800
     15 C17          3.4290    -0.0110     1.3220 c6         1 C93      -0.092400
     16 C16          4.2160    -0.0890    -0.0060 c6         1 C93       0.165300
     17 O19          5.2840    -1.0350     0.1070 oh         1 C93      -0.676000
     18 C15          3.2670    -0.4820    -1.1610 c6         1 C93      -0.092400
     19 C14          2.0690     0.4950    -1.2430 c6         1 C93       0.199800
     20 H2          -3.7050     2.2290     0.1540 ha         1 C93       0.105000
     21 H3          -1.8420     3.8560     0.3750 ha         1 C93       0.056000
     22 H4           0.5060     3.0750     0.3170 ha         1 C93       0.058000
     23 H6           2.6060     1.9820     1.0480 h1         1 C93       0.026950
     24 H7           1.6590     0.9440     2.1330 h1         1 C93       0.026950
     25 H8           4.0880     0.3250     2.1330 hc         1 C93       0.048200
     26 H9           3.0640    -1.0090     1.6020 hc         1 C93       0.048200
     27 H10          4.6320     0.9060    -0.2210 h1         1 C93      -0.001300
     28 H11          5.7790    -0.9990    -0.7400 ho         1 C93       0.422000
     29 H12          3.8080    -0.4790    -2.1160 hc         1 C93       0.048200
     30 H13          2.8930    -1.5040    -1.0100 hc         1 C93       0.048200
     31 H14          1.3870     0.1570    -2.0370 h1         1 C93       0.026950
     32 H15          2.4340     1.4930    -1.5270 h1         1 C93       0.026950
@<TRIPOS>BOND
     1     1     2 1   
     2     2     3 1   
     3     2     4 1   
     4     4     5 ar  
     5     4     9 ar  
     6     5     6 ar  
     7     5    20 1   
     8     6     7 ar  
     9     6    21 1   
    10     7     8 ar  
    11     7    22 1   
    12     8     9 ar  
    13     8    13 1   
    14     9    10 1   
    15    10    11 1   
    16    10    12 1   
    17    13    14 1   
    18    13    19 1   
    19    14    15 1   
    20    14    23 1   
    21    14    24 1   
    22    15    16 1   
    23    15    25 1   
    24    15    26 1   
    25    16    17 1   
    26    16    18 1   
    27    16    27 1   
    28    17    28 1   
    29    18    19 1   
    30    18    29 1   
    31    18    30 1   
    32    19    31 1   
    33    19    32 1   
@<TRIPOS>SUBSTRUCTURE
     1 C93         1 TEMP              0 ****  ****    0 ROOT
