@<TRIPOS>MOLECULE
C94
   37    39     1     0     0
SMALL
abcg2


@<TRIPOS>ATOM
      1 O4          -5.6890    -1.1250    -0.3080 o          1 C94      -0.535000
      2 S2          -4.8610     0.0360    -0.0230 sy         1 C94       1.133600
      3 O3          -4.9840     1.2040    -0.8750 o          1 C94      -0.535000
      4 N6          -5.0530     0.5280     1.5340 n8         1 C94      -1.018100
      5 C16         -3.1680    -0.5500    -0.0290 ca         1 C94      -0.200500
      6 C15         -2.0300     0.2680    -0.0710 ca         1 C94      -0.090300
      7 C24         -2.0710     1.7750    -0.1590 c3         1 C94       0.356300
      8 F26         -0.8800     2.3120     0.1290 f          1 C94      -0.100667
      9 F27         -2.3860     2.1870    -1.3890 f          1 C94      -0.100667
     10 F25         -2.9400     2.3160     0.6950 f          1 C94      -0.100667
     11 C14         -0.7780    -0.3250    -0.0740 ca         1 C94      -0.071000
     12 C13         -0.6220    -1.7120    -0.0240 ca         1 C94      -0.076500
     13 C18         -1.7610    -2.5080     0.0190 ca         1 C94      -0.089000
     14 C17         -3.0150    -1.9300     0.0140 ca         1 C94      -0.038000
     15 C4           0.6920    -2.3170    -0.0160 cc         1 C94       0.189500
     16 O2           1.7600    -1.4980    -0.0170 os         1 C94      -0.225000
     17 C3           1.1140    -3.6180    -0.0030 cd         1 C94      -0.156000
     18 C2           2.5240    -3.5810     0.0050 cd         1 C94      -0.138000
     19 C1           2.8760    -2.2590    -0.0030 cc         1 C94       0.166800
     20 C6           4.1440    -1.6140     0.0060 ce         1 C94      -0.167800
     21 C7           4.3640    -0.2890     0.0080 cd         1 C94      -0.118600
     22 S1           3.1740     0.9930    -0.0010 ss         1 C94      -0.067800
     23 C9           4.4340     2.2350     0.0150 cc         1 C94       0.482800
     24 N3           4.1270     3.4550     0.0160 n2         1 C94      -0.761100
     25 N2           5.6740     1.6330     0.0270 ns         1 C94      -0.474400
     26 C8           5.7370     0.2680     0.0230 c          1 C94       0.584200
     27 O1           6.7610    -0.3770     0.0320 o          1 C94      -0.502000
     28 H6N1        -5.6270     1.3620     1.6110 hn         1 C94       0.485500
     29 H6N2        -5.3850    -0.2080     2.1470 hn         1 C94       0.485500
     30 H17         -3.8810    -2.5740     0.0450 ha         1 C94       0.149000
     31 H14          0.1000     0.3010    -0.1160 ha         1 C94       0.150000
     32 H18         -1.6830    -3.5860     0.0580 ha         1 C94       0.127000
     33 H3           0.4890    -4.4970    -0.0000 ha         1 C94       0.149000
     34 H2           3.2030    -4.4180     0.0170 ha         1 C94       0.152000
     35 H6           5.0050    -2.2710     0.0160 ha         1 C94       0.220000
     36 H3N1         6.5170     2.1910     0.0430 hn         1 C94       0.340500
     37 H3N2         4.9400     4.0620     0.0250 hn         1 C94       0.394400
@<TRIPOS>BOND
     1     1     2 2   
     2     2     3 2   
     3     2     4 1   
     4     2     5 1   
     5     4    28 1   
     6     4    29 1   
     7     5     6 ar  
     8     5    14 ar  
     9     6     7 1   
    10     6    11 ar  
    11     7     8 1   
    12     7     9 1   
    13     7    10 1   
    14    11    12 ar  
    15    11    31 1   
    16    12    13 ar  
    17    12    15 1   
    18    13    14 ar  
    19    13    32 1   
    20    14    30 1   
    21    15    16 1   
    22    15    17 2   
    23    16    19 1   
    24    17    18 1   
    25    17    33 1   
    26    18    19 2   
    27    18    34 1   
    28    19    20 1   
    29    20    21 2   
    30    20    35 1   
    31    21    22 1   
    32    21    26 1   
    33    22    23 1   
    34    23    24 2   
    35    23    25 1   
    36    24    37 1   
    37    25    26 1   
    38    25    36 1   
    39    26    27 2   
@<TRIPOS>SUBSTRUCTURE
     1 C94         1 TEMP              0 ****  ****    0 ROOT
