@<TRIPOS>MOLECULE
C94
   37    39     1     0     0
SMALL
No Charge or Current Charge


@<TRIPOS>ATOM
      1 O4          -5.9850    -1.3600    -0.1640 o          1 C94      -0.535000
      2 S2          -5.1350    -0.1840     0.0100 sy         1 C94       1.133600
      3 O3          -5.3760     1.0440    -0.7400 o          1 C94      -0.535000
      4 N6          -5.4230     0.2550     1.5540 n8         1 C94      -1.018100
      5 C16         -3.3700    -0.6530     0.0170 ca         1 C94      -0.200500
      6 C15         -2.2700     0.2670    -0.0590 ca         1 C94      -0.090300
      7 C24         -2.4320     1.8070    -0.1440 c3         1 C94       0.356300
      8 F26         -1.2660     2.4690     0.0460 f          1 C94      -0.100667
      9 F27         -2.8830     2.1970    -1.3580 f          1 C94      -0.100667
     10 F25         -3.2780     2.3000     0.7870 f          1 C94      -0.100667
     11 C14         -0.9540    -0.2630    -0.0690 ca         1 C94      -0.071000
     12 C13         -0.6960    -1.6460     0.0150 ca         1 C94      -0.076500
     13 C18         -1.7860    -2.5270     0.1130 ca         1 C94      -0.089000
     14 C17         -3.0980    -2.0380     0.1130 ca         1 C94      -0.038000
     15 C4           0.6900    -2.1320     0.0060 cc         1 C94       0.189500
     16 O2           1.7700    -1.2840     0.0060 os         1 C94      -0.225000
     17 C3           1.0960    -3.4380    -0.0140 cd         1 C94      -0.156000
     18 C2           2.5070    -3.4000    -0.0230 cd         1 C94      -0.138000
     19 C1           2.8920    -2.0830    -0.0100 cc         1 C94       0.166800
     20 C6           4.2280    -1.4970    -0.0130 ce         1 C94      -0.167800
     21 C7           4.7020    -0.1980    -0.0060 cd         1 C94      -0.118600
     22 S1           3.6130     1.2070     0.0110 ss         1 C94      -0.067800
     23 C9           5.0330     2.2410     0.0100 cc         1 C94       0.482800
     24 N3           4.9120     3.5220     0.0200 n2         1 C94      -0.761100
     25 N2           6.1940     1.5440    -0.0020 ns         1 C94      -0.474400
     26 C8           6.1330     0.1900    -0.0120 c          1 C94       0.584200
     27 O1           7.1050    -0.5480    -0.0230 o          1 C94      -0.502000
     28 H6N1        -5.7910     1.1920     1.4070 hn         1 C94       0.485500
     29 H6N2        -6.2680    -0.2810     1.7400 hn         1 C94       0.485500
     30 H17         -3.9110    -2.7570     0.1870 ha         1 C94       0.149000
     31 H14         -0.1010     0.4070    -0.1460 ha         1 C94       0.150000
     32 H18         -1.6320    -3.6000     0.1890 ha         1 C94       0.127000
     33 H3           0.4730    -4.3250    -0.0250 ha         1 C94       0.149000
     34 H2           3.1750    -4.2560    -0.0390 ha         1 C94       0.152000
     35 H6           5.0130    -2.2540    -0.0240 ha         1 C94       0.220000
     36 H3N1         7.0980     1.9940    -0.0040 hn         1 C94       0.340500
     37 H3N2         5.8440     3.9580     0.0180 hn         1 C94       0.394400
@<TRIPOS>BOND
     1     1     2 2   
     2     2     3 2   
     3     2     4 1   
     4     2     5 1   
     5     4    28 1   
     6     4    29 1   
     7     5     6 ar  
     8     5    14 ar  
     9     6     7 1   
    10     6    11 ar  
    11     7     8 1   
    12     7     9 1   
    13     7    10 1   
    14    11    12 ar  
    15    11    31 1   
    16    12    13 ar  
    17    12    15 1   
    18    13    14 ar  
    19    13    32 1   
    20    14    30 1   
    21    15    16 1   
    22    15    17 2   
    23    16    19 1   
    24    17    18 1   
    25    17    33 1   
    26    18    19 2   
    27    18    34 1   
    28    19    20 1   
    29    20    21 2   
    30    20    35 1   
    31    21    22 1   
    32    21    26 1   
    33    22    23 1   
    34    23    24 2   
    35    23    25 1   
    36    24    37 1   
    37    25    26 1   
    38    25    36 1   
    39    26    27 2   
@<TRIPOS>SUBSTRUCTURE
     1 C94         1 TEMP              0 ****  ****    0 ROOT
