@<TRIPOS>MOLECULE
C95
   31    33     1     0     0
SMALL
No Charge or Current Charge


@<TRIPOS>ATOM
      1 O4           5.9140     2.3450     0.0350 o          1 C95      -0.712000
      2 O3           6.9180     0.4470     0.0250 o          1 C95      -0.712000
      3 C16          4.5510     0.4100     0.0180 ca         1 C95      -0.098600
      4 C15          3.3420     1.1420     0.0180 ca         1 C95      -0.099500
      5 C14          2.1000     0.4840     0.0100 ca         1 C95      -0.099500
      6 C13          2.0280    -0.9240     0.0010 ca         1 C95      -0.204500
      7 C18          3.2330    -1.6590     0.0000 ca         1 C95      -0.099500
      8 C17          4.4750    -1.0010     0.0080 ca         1 C95      -0.099500
      9 C4           0.7170    -1.5890    -0.0080 cc         1 C95       0.294500
     10 O2          -0.4660    -0.8910    -0.0080 os         1 C95      -0.230000
     11 C3           0.4880    -2.9360    -0.0160 cd         1 C95      -0.232000
     12 C2          -0.9160    -3.0890    -0.0220 cd         1 C95      -0.112000
     13 C1          -1.4720    -1.8340    -0.0170 cc         1 C95       0.093800
     14 C6          -2.8760    -1.4330    -0.0200 ce         1 C95      -0.121800
     15 C7          -3.5210    -0.2100    -0.0150 cd         1 C95      -0.166600
     16 S1          -2.6340     1.3300    -0.0040 ss         1 C95      -0.044800
     17 C9          -4.1830     2.1600    -0.0040 cc         1 C95       0.477800
     18 N3          -4.2440     3.4460     0.0020 n2         1 C95      -0.778100
     19 N2          -5.2370     1.3100    -0.0130 ns         1 C95      -0.478400
     20 C19          5.8970     1.1220     0.0260 c          1 C95       0.709600
     21 C8          -4.9900    -0.0220    -0.0190 c          1 C95       0.589200
     22 O1          -5.8510    -0.8870    -0.0270 o          1 C95      -0.529000
     23 H15          3.3600     2.2300     0.0250 ha         1 C95       0.134500
     24 H17          5.3850    -1.5980     0.0070 ha         1 C95       0.134500
     25 H14          1.1900     1.0800     0.0110 ha         1 C95       0.098000
     26 H18          3.2230    -2.7460    -0.0070 ha         1 C95       0.098000
     27 HA           1.2250    -3.7300    -0.0170 ha         1 C95       0.144000
     28 H2          -1.4620    -4.0270    -0.0290 ha         1 C95       0.133000
     29 H6          -3.5530    -2.2890    -0.0270 ha         1 C95       0.204000
     30 H3N1        -6.1930     1.6320    -0.0140 hn         1 C95       0.328500
     31 H3N2        -5.2280     3.7450     0.0010 hn         1 C95       0.379400
@<TRIPOS>BOND
     1     1    20 1   
     2     2    20 1   
     3     3     4 ar  
     4     3     8 ar  
     5     3    20 1   
     6     4     5 ar  
     7     4    23 1   
     8     5     6 ar  
     9     5    25 1   
    10     6     7 ar  
    11     6     9 1   
    12     7     8 ar  
    13     7    26 1   
    14     8    24 1   
    15     9    10 1   
    16     9    11 2   
    17    10    13 1   
    18    11    12 1   
    19    11    27 1   
    20    12    13 2   
    21    12    28 1   
    22    13    14 1   
    23    14    15 2   
    24    14    29 1   
    25    15    16 1   
    26    15    21 1   
    27    16    17 1   
    28    17    18 2   
    29    17    19 1   
    30    18    31 1   
    31    19    21 1   
    32    19    30 1   
    33    21    22 2   
@<TRIPOS>SUBSTRUCTURE
     1 C95         1 TEMP              0 ****  ****    0 ROOT
