@<TRIPOS>MOLECULE
C95
   31    33     1     0     0
SMALL
bcc


@<TRIPOS>ATOM
      1 O4           5.4280     2.5860     0.0620 o          1 C95      -0.817300
      2 O3           6.6150     0.7000    -0.0000 o          1 C95      -0.817300
      3 C16          4.2620     0.5350     0.0160 ca         1 C95      -0.098600
      4 C15          3.0190     1.1630     0.0310 ca         1 C95      -0.117500
      5 C14          1.8430     0.4320     0.0220 ca         1 C95      -0.117500
      6 C13          1.8790    -0.9650    -0.0010 ca         1 C95      -0.204500
      7 C18          3.1260    -1.5990    -0.0180 ca         1 C95      -0.117500
      8 C17          4.2930    -0.8580    -0.0100 ca         1 C95      -0.117500
      9 C4           0.6670    -1.7590    -0.0070 cc         1 C95       0.404200
     10 O2          -0.5120    -1.1090    -0.0100 os         1 C95      -0.318800
     11 C3           0.4390    -3.1090    -0.0080 cd         1 C95      -0.315300
     12 C2          -0.9610    -3.2820    -0.0120 cd         1 C95      -0.195300
     13 C1          -1.5070    -2.0270    -0.0130 cc         1 C95       0.203500
     14 C6          -2.8540    -1.5800    -0.0160 ce         1 C95      -0.071800
     15 C7          -3.2780    -0.3040    -0.0160 cd         1 C95      -0.166600
     16 S1          -2.2960     1.1470    -0.0120 ss         1 C95      -0.044800
     17 C9          -3.7320     2.1800    -0.0120 cc         1 C95       0.477800
     18 N3          -3.6180     3.4330    -0.0090 n2         1 C95      -0.778100
     19 N2          -4.8640     1.3950    -0.0160 ns         1 C95      -0.545400
     20 C19          5.5510     1.3470     0.0270 c          1 C95       0.920200
     21 C8          -4.7160     0.0340    -0.0180 c          1 C95       0.731700
     22 O1          -5.6320    -0.7580    -0.0200 o          1 C95      -0.604500
     23 H15          2.9700     2.2430     0.0490 ha         1 C95       0.152500
     24 H17          5.2460    -1.3690    -0.0230 ha         1 C95       0.152500
     25 H14          0.8980     0.9600     0.0360 ha         1 C95       0.116000
     26 H18          3.1870    -2.6800    -0.0360 ha         1 C95       0.116000
     27 HA           1.1840    -3.8870    -0.0040 ha         1 C95       0.162000
     28 H2          -1.5080    -4.2110    -0.0130 ha         1 C95       0.151000
     29 H6          -3.6070    -2.3600    -0.0180 ha         1 C95       0.154000
     30 H3N1        -5.7850     1.8150    -0.0170 hn         1 C95       0.328500
     31 H3N2        -4.5160     3.9060    -0.0110 hn         1 C95       0.379400
@<TRIPOS>BOND
     1     1    20 1   
     2     2    20 1   
     3     3     4 ar  
     4     3     8 ar  
     5     3    20 1   
     6     4     5 ar  
     7     4    23 1   
     8     5     6 ar  
     9     5    25 1   
    10     6     7 ar  
    11     6     9 1   
    12     7     8 ar  
    13     7    26 1   
    14     8    24 1   
    15     9    10 1   
    16     9    11 2   
    17    10    13 1   
    18    11    12 1   
    19    11    27 1   
    20    12    13 2   
    21    12    28 1   
    22    13    14 1   
    23    14    15 2   
    24    14    29 1   
    25    15    16 1   
    26    15    21 1   
    27    16    17 1   
    28    17    18 2   
    29    17    19 1   
    30    18    31 1   
    31    19    21 1   
    32    19    30 1   
    33    21    22 2   
@<TRIPOS>SUBSTRUCTURE
     1 C95         1 TEMP              0 ****  ****    0 ROOT
