@<TRIPOS>MOLECULE
C96
   37    39     1     0     0
SMALL
No Charge or Current Charge


@<TRIPOS>ATOM
      1 O4           6.6180     0.3950     1.0860 o          1 C96      -0.528000
      2 S2           5.7350     0.9240     0.0460 sy         1 C96       1.145600
      3 O3           5.6310     2.3480    -0.2630 o          1 C96      -0.528000
      4 N6           6.2650     0.2570    -1.3490 n8         1 C96      -1.001100
      5 C16          4.0970     0.2030     0.1790 ca         1 C96      -0.314500
      6 C15          2.9740     0.8810    -0.3360 ca         1 C96      -0.016500
      7 C14          1.6950     0.3070    -0.2290 ca         1 C96      -0.110000
      8 C13          1.5130    -0.9460     0.3920 ca         1 C96      -0.071500
      9 C18          2.6450    -1.6190     0.9040 ca         1 C96      -0.110000
     10 C17          3.9260    -1.0510     0.7990 ca         1 C96      -0.016500
     11 C4           0.1650    -1.5220     0.4910 cc         1 C96       0.196500
     12 O2          -0.9230    -0.9690    -0.1400 os         1 C96      -0.226000
     13 C3          -0.1970    -2.6220     1.2170 cd         1 C96      -0.162000
     14 C2          -1.5870    -2.7700     1.0220 cd         1 C96      -0.140000
     15 C1          -2.0040    -1.7620     0.1860 cc         1 C96       0.158800
     16 C6          -3.3420    -1.4240    -0.3060 ce         1 C96      -0.041000
     17 C7          -3.9430    -0.1730    -0.3240 cd         1 C96      -0.120600
     18 S1          -3.0790     1.2440     0.3210 ss         1 C96      -0.084800
     19 C9          -4.4760     2.2240    -0.0810 cc         1 C96       0.481800
     20 N3          -4.4820     3.4870     0.1630 n2         1 C96      -0.771100
     21 N2          -5.4760     1.5110    -0.6440 ns         1 C96      -0.475400
     22 C8          -5.3000     0.1790    -0.8280 c          1 C96       0.588200
     23 C20         -4.0920    -2.6450    -0.8290 c3         1 C96      -0.064900
     24 O1          -6.1440    -0.5500    -1.3230 o          1 C96      -0.508000
     25 H6N1         5.3950    -0.0530    -1.7750 hn         1 C96       0.478000
     26 H6N2         6.5100     1.0910    -1.8770 hn         1 C96       0.478000
     27 H17          4.7830    -1.5920     1.2000 ha         1 C96       0.140000
     28 H15          3.0820     1.8520    -0.8190 ha         1 C96       0.140000
     29 H18          2.5460    -2.5900     1.3810 ha         1 C96       0.130000
     30 H14          0.8420     0.8480    -0.6320 ha         1 C96       0.130000
     31 H3           0.4410    -3.2490     1.8300 ha         1 C96       0.148000
     32 H2          -2.2210    -3.5340     1.4600 ha         1 C96       0.149000
     33 H201        -4.9910    -2.8450    -0.2340 hc         1 C96       0.064367
     34 H202        -4.4010    -2.5050    -1.8710 hc         1 C96       0.064367
     35 H203        -3.4820    -3.5570    -0.8080 hc         1 C96       0.064367
     36 H3N1        -6.3470     1.9320    -0.9300 hn         1 C96       0.339500
     37 H3N2        -5.3790     3.8940    -0.1380 hn         1 C96       0.393400
@<TRIPOS>BOND
     1     1     2 2   
     2     2     3 2   
     3     2     4 1   
     4     2     5 1   
     5     4    25 1   
     6     4    26 1   
     7     5     6 ar  
     8     5    10 ar  
     9     6     7 ar  
    10     6    28 1   
    11     7     8 ar  
    12     7    30 1   
    13     8     9 ar  
    14     8    11 1   
    15     9    10 ar  
    16     9    29 1   
    17    10    27 1   
    18    11    12 1   
    19    11    13 2   
    20    12    15 1   
    21    13    14 1   
    22    13    31 1   
    23    14    15 2   
    24    14    32 1   
    25    15    16 1   
    26    16    17 2   
    27    16    23 1   
    28    17    18 1   
    29    17    22 1   
    30    18    19 1   
    31    19    20 2   
    32    19    21 1   
    33    20    37 1   
    34    21    22 1   
    35    21    36 1   
    36    22    24 2   
    37    23    33 1   
    38    23    34 1   
    39    23    35 1   
@<TRIPOS>SUBSTRUCTURE
     1 C96         1 TEMP              0 ****  ****    0 ROOT
