@<TRIPOS>MOLECULE
C96
   37    39     1     0     0
SMALL
bcc


@<TRIPOS>ATOM
      1 O4           6.2790     0.3800     1.1120 o          1 C96      -0.598800
      2 S2           5.3390     1.1400     0.3050 sy         1 C96       1.287200
      3 O3           5.0730     2.5350     0.6080 o          1 C96      -0.598800
      4 N6           5.9090     1.0980    -1.2330 n8         1 C96      -0.890700
      5 C16          3.7920     0.2730     0.3280 ca         1 C96      -0.314500
      6 C15          2.6090     0.9680     0.1240 ca         1 C96      -0.034500
      7 C14          1.4070     0.2830     0.1230 ca         1 C96      -0.128000
      8 C13          1.3760    -1.0990     0.3280 ca         1 C96      -0.071500
      9 C18          2.5810    -1.7800     0.5310 ca         1 C96      -0.128000
     10 C17          3.7840    -1.1020     0.5350 ca         1 C96      -0.034500
     11 C4           0.1290    -1.8340     0.3410 cc         1 C96       0.306200
     12 O2          -1.0060    -1.1500     0.1020 os         1 C96      -0.314800
     13 C3          -0.1750    -3.1480     0.5590 cd         1 C96      -0.245300
     14 C2          -1.5770    -3.2620     0.4410 cd         1 C96      -0.223300
     15 C1          -2.0500    -2.0070     0.1580 cc         1 C96       0.268500
     16 C6          -3.3840    -1.5080    -0.0480 ce         1 C96      -0.041000
     17 C7          -3.6360    -0.2040    -0.3240 cd         1 C96      -0.120600
     18 S1          -2.4130     1.0470    -0.5610 ss         1 C96      -0.084800
     19 C9          -3.6260     2.2690    -0.9340 cc         1 C96       0.481800
     20 N3          -3.2860     3.4460    -1.2270 n2         1 C96      -0.771100
     21 N2          -4.8760     1.7090    -0.8360 ns         1 C96      -0.542400
     22 C8          -4.9870     0.3900    -0.4850 c          1 C96       0.730700
     23 C20         -4.4570    -2.5510     0.0950 c3         1 C96      -0.064900
     24 O1          -6.0560    -0.1590    -0.3310 o          1 C96      -0.583500
     25 H6N1         6.1310     0.1680    -1.5680 hn         1 C96       0.422800
     26 H6N2         5.3390     1.6060    -1.9000 hn         1 C96       0.422800
     27 H17          4.7020    -1.6490     0.7030 ha         1 C96       0.158000
     28 H15          2.6090     2.0390    -0.0270 ha         1 C96       0.158000
     29 H18          2.5860    -2.8490     0.6910 ha         1 C96       0.148000
     30 H14          0.4940     0.8430    -0.0310 ha         1 C96       0.148000
     31 H3           0.5170    -3.9450     0.7790 ha         1 C96       0.166000
     32 H2          -2.1580    -4.1610     0.5590 ha         1 C96       0.167000
     33 H201        -4.7310    -2.6730     1.1450 hc         1 C96       0.064367
     34 H202        -5.3540    -2.3050    -0.4570 hc         1 C96       0.064367
     35 H203        -4.0970    -3.5140    -0.2620 hc         1 C96       0.064367
     36 H3N1        -5.7080     2.2650    -0.9870 hn         1 C96       0.339500
     37 H3N2        -4.0840     4.0430    -1.4160 hn         1 C96       0.393400
@<TRIPOS>BOND
     1     1     2 2   
     2     2     3 2   
     3     2     4 1   
     4     2     5 1   
     5     4    25 1   
     6     4    26 1   
     7     5     6 ar  
     8     5    10 ar  
     9     6     7 ar  
    10     6    28 1   
    11     7     8 ar  
    12     7    30 1   
    13     8     9 ar  
    14     8    11 1   
    15     9    10 ar  
    16     9    29 1   
    17    10    27 1   
    18    11    12 1   
    19    11    13 2   
    20    12    15 1   
    21    13    14 1   
    22    13    31 1   
    23    14    15 2   
    24    14    32 1   
    25    15    16 1   
    26    16    17 2   
    27    16    23 1   
    28    17    18 1   
    29    17    22 1   
    30    18    19 1   
    31    19    20 2   
    32    19    21 1   
    33    20    37 1   
    34    21    22 1   
    35    21    36 1   
    36    22    24 2   
    37    23    33 1   
    38    23    34 1   
    39    23    35 1   
@<TRIPOS>SUBSTRUCTURE
     1 C96         1 TEMP              0 ****  ****    0 ROOT
