@<TRIPOS>MOLECULE
C97
   42    43     1     0     0
SMALL
No Charge or Current Charge


@<TRIPOS>ATOM
      1 C01        -24.4530     2.8720    16.1090 ca         1 C97      -0.007500
      2 C02        -23.9250     4.1190    15.7310 ca         1 C97      -0.130500
      3 C03        -24.7650     5.1230    15.2160 ca         1 C97      -0.022300
      4 C04        -26.1420     4.8670    15.0770 ca         1 C97      -0.130500
      5 C05        -26.6780     3.6230    15.4520 ca         1 C97      -0.007500
      6 C06        -25.8330     2.6190    15.9710 ca         1 C97      -0.275500
      7 C07        -24.1900     6.4690    14.8020 c3         1 C97      -0.066100
      8 C08        -23.8100     6.4980    13.3100 c3         1 C97       0.107000
      9 C10        -24.0560     8.7570    12.2060 c          1 C97       0.601100
     10 C11        -21.8010     8.0330    13.1320 c3         1 C97       0.080700
     11 C13        -23.3880    10.0930    11.7040 c3         1 C97       0.072800
     12 C14        -21.5430     8.9480    14.3050 cc         1 C97       0.084300
     13 C16        -22.3910     9.5480    15.1970 cd         1 C97      -0.166000
     14 C17        -21.5920    10.2980    16.0840 cd         1 C97      -0.183000
     15 C18        -20.2910    10.1280    15.6990 cc         1 C97       0.124900
     16 N09        -23.2470     7.8000    12.8740 n          1 C97      -0.418800
     17 N15        -24.2820    11.1440    11.0950 n8         1 C97      -0.977200
     18 N23        -26.3000     0.1510    15.0850 n8         1 C97      -1.005100
     19 O12        -25.2500     8.5390    12.0170 o          1 C97      -0.576100
     20 O19        -20.2440     9.2960    14.6010 os         1 C97      -0.244000
     21 O21        -27.9570     1.1160    16.5920 o          1 C97      -0.544500
     22 O22        -25.6480     0.3840    17.4490 o          1 C97      -0.544500
     23 S20        -26.5060     1.0260    16.4520 sy         1 C97       1.125600
     24 H011       -23.7860     2.1070    16.5050 ha         1 C97       0.137500
     25 H021       -22.8580     4.3020    15.8390 ha         1 C97       0.123000
     26 H041       -26.8010     5.6340    14.6760 ha         1 C97       0.123000
     27 H051       -27.7470     3.4470    15.3380 ha         1 C97       0.137500
     28 H072       -23.3040     6.7010    15.4050 hc         1 C97       0.066200
     29 H071       -24.9160     7.2660    15.0010 hc         1 C97       0.066200
     30 H081       -24.6940     6.2490    12.7090 h1         1 C97       0.058700
     31 H082       -23.0700     5.7090    13.1180 h1         1 C97       0.058700
     32 H111       -21.3080     7.0730    13.3330 h1         1 C97       0.066200
     33 H112       -21.3240     8.4490    12.2350 h1         1 C97       0.066200
     34 H132       -22.6310     9.8120    10.9580 h1         1 C97       0.047700
     35 H131       -22.8630    10.5480    12.5530 h1         1 C97       0.047700
     36 H161       -23.4730     9.4620    15.2150 ha         1 C97       0.151000
     37 H171       -21.9360    10.9020    16.9180 ha         1 C97       0.146000
     38 H181       -19.3580    10.5120    16.0880 h4         1 C97       0.055100
     39 H152       -23.7080    11.8970    10.6930 hn         1 C97       0.403500
     40 H151       -24.7700    10.7460    10.2820 hn         1 C97       0.403500
     41 H232       -27.2420    -0.2080    14.9440 hn         1 C97       0.472500
     42 H231       -26.2080     0.8750    14.3780 hn         1 C97       0.472500
@<TRIPOS>BOND
     1     1     2 ar  
     2     1     6 ar  
     3     1    24 1   
     4     2     3 ar  
     5     2    25 1   
     6     3     4 ar  
     7     3     7 1   
     8     4     5 ar  
     9     4    26 1   
    10     5     6 ar  
    11     5    27 1   
    12     6    23 1   
    13     7     8 1   
    14     7    28 1   
    15     7    29 1   
    16     8    16 1   
    17     8    30 1   
    18     8    31 1   
    19     9    11 1   
    20     9    16 1   
    21     9    19 2   
    22    10    12 1   
    23    10    16 1   
    24    10    32 1   
    25    10    33 1   
    26    11    17 1   
    27    11    34 1   
    28    11    35 1   
    29    12    13 2   
    30    12    20 1   
    31    13    14 1   
    32    13    36 1   
    33    14    15 2   
    34    14    37 1   
    35    15    20 1   
    36    15    38 1   
    37    17    39 1   
    38    17    40 1   
    39    18    23 1   
    40    18    41 1   
    41    18    42 1   
    42    21    23 2   
    43    22    23 2   
@<TRIPOS>SUBSTRUCTURE
     1 C97         1 TEMP              0 ****  ****    0 ROOT
