@<TRIPOS>MOLECULE
C97
   42    43     1     0     0
SMALL
bcc


@<TRIPOS>ATOM
      1 C01        -24.5990     3.0710    16.1100 ca         1 C97      -0.025500
      2 C02        -24.0770     4.3140    15.7970 ca         1 C97      -0.148500
      3 C03        -24.8740     5.3060    15.2260 ca         1 C97      -0.022300
      4 C04        -26.2140     5.0240    14.9760 ca         1 C97      -0.148500
      5 C05        -26.7550     3.7850    15.2820 ca         1 C97      -0.025500
      6 C06        -25.9390     2.8140    15.8430 ca         1 C97      -0.275500
      7 C07        -24.2880     6.6280    14.8300 c3         1 C97      -0.066100
      8 C08        -23.7630     6.5580    13.3920 c3         1 C97       0.107000
      9 C10        -24.0750     8.7010    12.3070 c          1 C97       0.668100
     10 C11        -21.8170     8.0740    13.0670 c3         1 C97       0.080700
     11 C13        -23.4560     9.9480    11.6930 c3         1 C97       0.072800
     12 C14        -21.5170     8.8710    14.2960 cc         1 C97       0.194000
     13 C16        -22.2840     9.5600    15.1750 cd         1 C97      -0.249300
     14 C17        -21.3790    10.1490    16.1140 cd         1 C97      -0.266300
     15 C18        -20.1400     9.7730    15.7270 cc         1 C97       0.234600
     16 N09        -23.2280     7.8120    12.8900 n          1 C97      -0.485800
     17 N15        -24.4800    10.8920    11.3040 n8         1 C97      -0.866800
     18 N23        -25.8490     0.2770    15.1200 n8         1 C97      -0.894700
     19 O12        -25.2730     8.4890    12.2310 o          1 C97      -0.576100
     20 O19        -20.2150     8.9970    14.6220 os         1 C97      -0.332800
     21 O21        -28.0490     1.2870    16.0530 o          1 C97      -0.615300
     22 O22        -26.1000     0.7880    17.5360 o          1 C97      -0.615300
     23 S20        -26.6070     1.2260    16.2430 sy         1 C97       1.267200
     24 H011       -23.9650     2.3140    16.5510 ha         1 C97       0.155500
     25 H021       -23.0330     4.5170    16.0040 ha         1 C97       0.141000
     26 H041       -26.8480     5.7850    14.5360 ha         1 C97       0.141000
     27 H051       -27.7990     3.5860    15.0810 ha         1 C97       0.155500
     28 H072       -23.4750     6.9010    15.5050 hc         1 C97       0.066200
     29 H071       -25.0460     7.4100    14.9010 hc         1 C97       0.066200
     30 H081       -24.5630     6.2270    12.7300 h1         1 C97       0.058700
     31 H082       -22.9710     5.8090    13.3300 h1         1 C97       0.058700
     32 H111       -21.2950     7.1160    13.1130 h1         1 C97       0.066200
     33 H112       -21.4090     8.5780    12.1870 h1         1 C97       0.066200
     34 H132       -22.8070     9.6180    10.8670 h1         1 C97       0.047700
     35 H131       -22.7960    10.4350    12.4150 h1         1 C97       0.047700
     36 H161       -23.3580     9.6470    15.1670 ha         1 C97       0.169000
     37 H171       -21.6260    10.7680    16.9610 ha         1 C97       0.164000
     38 H181       -19.1540     9.9650    16.1180 h4         1 C97       0.055100
     39 H152       -24.0290    11.7140    10.9250 hn         1 C97       0.348300
     40 H151       -25.0370    10.5070    10.5530 hn         1 C97       0.348300
     41 H232       -25.8700    -0.7040    15.3850 hn         1 C97       0.417300
     42 H231       -26.2250     0.3990    14.1850 hn         1 C97       0.417300
@<TRIPOS>BOND
     1     1     2 ar  
     2     1     6 ar  
     3     1    24 1   
     4     2     3 ar  
     5     2    25 1   
     6     3     4 ar  
     7     3     7 1   
     8     4     5 ar  
     9     4    26 1   
    10     5     6 ar  
    11     5    27 1   
    12     6    23 1   
    13     7     8 1   
    14     7    28 1   
    15     7    29 1   
    16     8    16 1   
    17     8    30 1   
    18     8    31 1   
    19     9    11 1   
    20     9    16 1   
    21     9    19 2   
    22    10    12 1   
    23    10    16 1   
    24    10    32 1   
    25    10    33 1   
    26    11    17 1   
    27    11    34 1   
    28    11    35 1   
    29    12    13 2   
    30    12    20 1   
    31    13    14 1   
    32    13    36 1   
    33    14    15 2   
    34    14    37 1   
    35    15    20 1   
    36    15    38 1   
    37    17    39 1   
    38    17    40 1   
    39    18    23 1   
    40    18    41 1   
    41    18    42 1   
    42    21    23 2   
    43    22    23 2   
@<TRIPOS>SUBSTRUCTURE
     1 C97         1 TEMP              0 ****  ****    0 ROOT
