@<TRIPOS>MOLECULE
C98
   59    61     1     0     0
SMALL
No Charge or Current Charge


@<TRIPOS>ATOM
      1 Cl          -8.0850     0.9740     1.8090 cl         1 C98      -0.205000
      2 C17         -6.9450     0.6980     0.4910 ca         1 C98       0.129000
      3 C16         -7.2470    -0.1690    -0.5960 cp         1 C98      -0.029000
      4 C19         -8.5250    -0.9410    -0.6790 cp         1 C98      -0.037000
      5 C24         -9.3330    -0.8680    -1.8400 ca         1 C98      -0.089500
      6 C23        -10.5280    -1.6010    -1.9380 ca         1 C98      -0.114500
      7 C22        -10.9340    -2.4280    -0.8780 ca         1 C98      -0.106000
      8 C21        -10.1410    -2.5250     0.2770 ca         1 C98      -0.114500
      9 C20         -8.9460    -1.7900     0.3740 ca         1 C98      -0.089500
     10 C15         -6.2940    -0.2870    -1.6360 ca         1 C98      -0.100000
     11 C14         -5.0790     0.4160    -1.5940 ca         1 C98      -0.086000
     12 C18         -5.7280     1.4010     0.5270 ca         1 C98      -0.104000
     13 C13         -4.7870     1.2640    -0.5110 ca         1 C98      -0.075300
     14 C12         -3.4710     2.0300    -0.4670 c3         1 C98       0.205100
     15 N2          -2.3940     1.1730     0.0590 n7         1 C98      -0.866400
     16 C11         -1.0770     1.8220     0.1740 c3         1 C98       0.161800
     17 C10         -0.0410     0.8220     0.7200 c3         1 C98      -0.098400
     18 C9           1.3610     1.4450     0.8620 c3         1 C98       0.107000
     19 N1           2.3380     0.4950     1.4030 ns         1 C98      -0.509900
     20 C8           2.9540    -0.4970     0.6750 c          1 C98       0.609100
     21 O3           2.7500    -0.6620    -0.5170 o          1 C98      -0.586100
     22 C7           3.9020    -1.3760     1.4560 c3         1 C98      -0.254400
     23 C6           5.3000    -0.8710     1.1580 c          1 C98       0.615100
     24 O2           5.7670     0.0840     1.7660 o          1 C98      -0.567100
     25 N            5.9690    -1.5760     0.1630 ns         1 C98      -0.124000
     26 C5           7.2660    -1.4410    -0.4080 ca         1 C98      -0.069000
     27 C4           7.6120    -2.3360    -1.4350 ca         1 C98      -0.189000
     28 C3           8.8710    -2.2670    -2.0470 ca         1 C98      -0.125000
     29 C2           9.8020    -1.3010    -1.6380 ca         1 C98      -0.103000
     30 C25          8.2080    -0.4690     0.0020 ca         1 C98      -0.093000
     31 C1           9.4850    -0.3870    -0.6060 ca         1 C98      -0.117600
     32 C           10.4940     0.6620    -0.1600 c          1 C98       0.711600
     33 O1          11.5850     0.7000    -0.7130 o          1 C98      -0.716500
     34 O           10.1820     1.4320     0.7380 o          1 C98      -0.716500
     35 H1          -9.0300    -0.2300    -2.6680 ha         1 C98       0.117500
     36 H2         -11.1390    -1.5280    -2.8350 ha         1 C98       0.111500
     37 H3         -11.8580    -2.9970    -0.9530 ha         1 C98       0.110000
     38 H4         -10.4490    -3.1700     1.0970 ha         1 C98       0.111500
     39 H5          -8.3340    -1.8860     1.2680 ha         1 C98       0.117500
     40 H6          -6.4980    -0.9430    -2.4800 ha         1 C98       0.120000
     41 H7          -4.3590     0.3000    -2.4020 ha         1 C98       0.134000
     42 H8          -5.5190     2.0610     1.3660 ha         1 C98       0.128000
     43 H9          -3.2250     2.3770    -1.4800 h1         1 C98       0.040200
     44 H10         -3.5950     2.9230     0.1620 h1         1 C98       0.040200
     45 H11         -2.6780     0.8530     0.9930 hn         1 C98       0.413000
     46 H13         -0.7420     2.1830    -0.8080 h1         1 C98       0.034700
     47 H14         -1.1330     2.6870     0.8490 h1         1 C98       0.034700
     48 H15         -0.3700     0.4550     1.7000 hc         1 C98       0.050200
     49 H16          0.0120    -0.0440     0.0500 hc         1 C98       0.050200
     50 H17          1.7100     1.8000    -0.1170 h1         1 C98       0.052200
     51 H18          1.3100     2.3110     1.5350 h1         1 C98       0.052200
     52 H19          2.5790     0.5570     2.3850 hn         1 C98       0.312500
     53 H20          3.7150    -1.2700     2.5300 hc         1 C98       0.067700
     54 H21          3.7930    -2.4030     1.0890 hc         1 C98       0.067700
     55 H22          5.4290    -2.3330    -0.2370 hn         1 C98       0.132000
     56 H23          6.9000    -3.0910    -1.7630 ha         1 C98       0.077000
     57 H24          9.1280    -2.9650    -2.8410 ha         1 C98       0.084000
     58 H25         10.7740    -1.2650    -2.1260 ha         1 C98       0.128000
     59 H26          7.9660     0.2320     0.7940 ha         1 C98       0.163000
@<TRIPOS>BOND
     1     1     2 1   
     2     2     3 ar  
     3     2    12 ar  
     4     3     4 1   
     5     3    10 ar  
     6     4     5 ar  
     7     4     9 ar  
     8     5     6 ar  
     9     5    35 1   
    10     6     7 ar  
    11     6    36 1   
    12     7     8 ar  
    13     7    37 1   
    14     8     9 ar  
    15     8    38 1   
    16     9    39 1   
    17    10    11 ar  
    18    10    40 1   
    19    11    13 ar  
    20    11    41 1   
    21    12    13 ar  
    22    12    42 1   
    23    13    14 1   
    24    14    15 1   
    25    14    43 1   
    26    14    44 1   
    27    15    16 1   
    28    15    45 1   
    29    16    17 1   
    30    16    46 1   
    31    16    47 1   
    32    17    18 1   
    33    17    48 1   
    34    17    49 1   
    35    18    19 1   
    36    18    50 1   
    37    18    51 1   
    38    19    20 1   
    39    19    52 1   
    40    20    21 2   
    41    20    22 1   
    42    22    23 1   
    43    22    53 1   
    44    22    54 1   
    45    23    24 2   
    46    23    25 1   
    47    25    26 1   
    48    25    55 1   
    49    26    27 ar  
    50    26    30 ar  
    51    27    28 ar  
    52    27    56 1   
    53    28    29 ar  
    54    28    57 1   
    55    29    31 ar  
    56    29    58 1   
    57    30    31 ar  
    58    30    59 1   
    59    31    32 1   
    60    32    33 1   
    61    32    34 1   
@<TRIPOS>SUBSTRUCTURE
     1 C98         1 TEMP              0 ****  ****    0 ROOT
