@<TRIPOS>MOLECULE
C98
   59    61     1     0     0
SMALL
bcc


@<TRIPOS>ATOM
      1 CL          -8.2050     2.4700     1.1370 cl         1 C98      -0.113400
      2 C17         -7.1430     1.3830     0.2980 ca         1 C98       0.037400
      3 C16         -7.5900     0.1230    -0.0910 cp         1 C98      -0.029000
      4 C19         -8.9530    -0.3820     0.1850 cp         1 C98      -0.037000
      5 C24         -9.7740    -0.7670    -0.8730 ca         1 C98      -0.107500
      6 C23        -11.0430    -1.2780    -0.6340 ca         1 C98      -0.132500
      7 C22        -11.5040    -1.4150     0.6680 ca         1 C98      -0.124000
      8 C21        -10.6890    -1.0390     1.7290 ca         1 C98      -0.132500
      9 C20         -9.4230    -0.5240     1.4900 ca         1 C98      -0.107500
     10 C15         -6.6860    -0.6780    -0.7930 ca         1 C98      -0.118000
     11 C14         -5.4040    -0.2490    -1.0830 ca         1 C98      -0.104000
     12 C18         -5.8590     1.8270     0.0110 ca         1 C98      -0.122000
     13 C13         -4.9750     1.0160    -0.6870 ca         1 C98      -0.075300
     14 C12         -3.5900     1.4960    -1.0240 c3         1 C98       0.205100
     15 N2          -2.5920     0.5070    -0.6690 n7         1 C98      -0.811200
     16 C11         -1.2500     0.9000    -1.0500 c3         1 C98       0.161800
     17 C10         -0.2430    -0.1760    -0.6750 c3         1 C98      -0.098400
     18 C9           1.1670     0.2240    -1.0770 c3         1 C98       0.107000
     19 N1           2.1180    -0.8030    -0.7000 ns         1 C98      -0.576900
     20 C8           3.4340    -0.6610    -0.8780 c          1 C98       0.676100
     21 O3           3.9440     0.3490    -1.3420 o          1 C98      -0.586100
     22 C7           4.2850    -1.8560    -0.4830 c3         1 C98      -0.254400
     23 C6           5.5300    -1.3560     0.2190 c          1 C98       0.682100
     24 O2           5.4730    -0.9300     1.3590 o          1 C98      -0.567100
     25 N            6.6540    -1.4130    -0.5280 ns         1 C98      -0.450100
     26 C5           7.9620    -1.0210    -0.2080 ca         1 C98       0.023600
     27 C4           8.9490    -1.3270    -1.1480 ca         1 C98      -0.207000
     28 C3          10.2660    -0.9720    -0.9140 ca         1 C98      -0.143000
     29 C2          10.6190    -0.3100     0.2540 ca         1 C98      -0.121000
     30 C25          8.3190    -0.3520     0.9620 ca         1 C98      -0.111000
     31 C1           9.6450     0.0040     1.1950 ca         1 C98      -0.117600
     32 C           10.0120     0.7400     2.4820 c          1 C98       0.922200
     33 O1          11.2150     1.0250     2.6350 o          1 C98      -0.821800
     34 O            9.0790     0.9920     3.2680 o          1 C98      -0.821800
     35 H1          -9.4220    -0.6570    -1.8910 ha         1 C98       0.135500
     36 H2         -11.6700    -1.5660    -1.4680 ha         1 C98       0.129500
     37 H3         -12.4910    -1.8160     0.8580 ha         1 C98       0.128000
     38 H4         -11.0390    -1.1510     2.7470 ha         1 C98       0.129500
     39 H5          -8.7920    -0.2460     2.3250 ha         1 C98       0.135500
     40 H6          -7.0020    -1.6650    -1.1060 ha         1 C98       0.138000
     41 H7          -4.7270    -0.9020    -1.6190 ha         1 C98       0.152000
     42 H8          -5.5510     2.8140     0.3310 ha         1 C98       0.146000
     43 H9          -3.5260     1.6630    -2.1040 h1         1 C98       0.040200
     44 H10         -3.4160     2.4770    -0.5560 h1         1 C98       0.040200
     45 H11         -2.6220     0.3580     0.3330 hn         1 C98       0.357800
     46 H13         -1.2330     1.0520    -2.1340 h1         1 C98       0.034700
     47 H14         -0.9450     1.8590    -0.6000 h1         1 C98       0.034700
     48 H15         -0.2800    -0.3510     0.4050 hc         1 C98       0.050200
     49 H16         -0.5220    -1.1140    -1.1630 hc         1 C98       0.050200
     50 H17          1.2120     0.3950    -2.1560 h1         1 C98       0.052200
     51 H18          1.4400     1.1650    -0.5940 h1         1 C98       0.052200
     52 H19          1.7650    -1.6640    -0.3130 hn         1 C98       0.312500
     53 H20          3.7530    -2.5310     0.1880 hc         1 C98       0.067700
     54 H21          4.5140    -2.4210    -1.3910 hc         1 C98       0.067700
     55 H22          6.5500    -1.8010    -1.4530 hn         1 C98       0.298500
     56 H23          8.6830    -1.8470    -2.0610 ha         1 C98       0.095000
     57 H24         11.0200    -1.2180    -1.6500 ha         1 C98       0.102000
     58 H25         11.6500    -0.0360     0.4330 ha         1 C98       0.146000
     59 H26          7.5790    -0.1020     1.7020 ha         1 C98       0.181000
@<TRIPOS>BOND
     1     1     2 1   
     2     2     3 ar  
     3     2    12 ar  
     4     3     4 1   
     5     3    10 ar  
     6     4     5 ar  
     7     4     9 ar  
     8     5     6 ar  
     9     5    35 1   
    10     6     7 ar  
    11     6    36 1   
    12     7     8 ar  
    13     7    37 1   
    14     8     9 ar  
    15     8    38 1   
    16     9    39 1   
    17    10    11 ar  
    18    10    40 1   
    19    11    13 ar  
    20    11    41 1   
    21    12    13 ar  
    22    12    42 1   
    23    13    14 1   
    24    14    15 1   
    25    14    43 1   
    26    14    44 1   
    27    15    16 1   
    28    15    45 1   
    29    16    17 1   
    30    16    46 1   
    31    16    47 1   
    32    17    18 1   
    33    17    48 1   
    34    17    49 1   
    35    18    19 1   
    36    18    50 1   
    37    18    51 1   
    38    19    20 1   
    39    19    52 1   
    40    20    21 2   
    41    20    22 1   
    42    22    23 1   
    43    22    53 1   
    44    22    54 1   
    45    23    24 2   
    46    23    25 1   
    47    25    26 1   
    48    25    55 1   
    49    26    27 ar  
    50    26    30 ar  
    51    27    28 ar  
    52    27    56 1   
    53    28    29 ar  
    54    28    57 1   
    55    29    31 ar  
    56    29    58 1   
    57    30    31 ar  
    58    30    59 1   
    59    31    32 1   
    60    32    33 1   
    61    32    34 1   
@<TRIPOS>SUBSTRUCTURE
     1 C98         1 TEMP              0 ****  ****    0 ROOT
