@<TRIPOS>MOLECULE
C99
   29    29     1     0     0
SMALL
No Charge or Current Charge


@<TRIPOS>ATOM
      1 N1          -1.5710    -0.1160     1.7980 n8         1 C99      -1.001200
      2 CA1         -1.2880    -0.7290     0.4480 c3         1 C99       0.119500
      3 CB1         -2.6370    -1.0970    -0.2670 c3         1 C99       0.134300
      4 CG1         -3.3920    -2.2470     0.4340 c3         1 C99      -0.132100
      5 OG1         -3.5160     0.0450    -0.3080 oh         1 C99      -0.657000
      6 C1          -0.3010     0.1460    -0.4490 c5         1 C99       0.547800
      7 O1          -0.0640    -0.5040    -1.6670 oh         1 C99      -0.736000
      8 N2          -0.8610     1.4490    -0.7540 ns         1 C99      -0.527900
      9 N3           0.9940     0.4110     0.2180 n          1 C99      -0.409800
     10 C2           1.0690     1.7600     0.5420 c          1 C99       0.500000
     11 O2           1.9550     2.3060     1.1990 o          1 C99      -0.529000
     12 CA2         -0.1870     2.4400    -0.0950 c          1 C99       0.488000
     13 CA3          1.9340    -0.5960     0.8170 c3         1 C99      -0.041000
     14 C3           2.4470    -1.7220    -0.1160 c          1 C99       0.712000
     15 O3           1.6410    -2.2470    -0.8730 o          1 C99      -0.699500
     16 O4          -0.5240     3.6190    -0.0420 o          1 C99      -0.553000
     17 OXT          3.6380    -1.9920    -0.1000 o          1 C99      -0.699500
     18 HN11        -2.3110     0.5810     1.6480 hn         1 C99       0.393000
     19 HN12        -2.0400    -0.8160     2.3830 hn         1 C99       0.393000
     20 HA1         -0.7540    -1.6720     0.6320 h1         1 C99       0.078700
     21 HB1         -2.4050    -1.4360    -1.2880 h1         1 C99       0.106700
     22 HG11        -3.7020    -1.9660     1.4480 hc         1 C99       0.036367
     23 HG12        -4.2900    -2.5220    -0.1330 hc         1 C99       0.036367
     24 HG13        -2.7550    -3.1370     0.5040 hc         1 C99       0.036367
     25 HOG1        -4.3760    -0.2640    -0.6690 ho         1 C99       0.425000
     26 HO1          0.5890    -1.2240    -1.4190 ho         1 C99       0.557000
     27 HN2         -1.7930     1.6110    -1.1080 hn         1 C99       0.327500
     28 HA31         2.8140    -0.0770     1.2150 h1         1 C99       0.046700
     29 HA32         1.4320    -1.0800     1.6630 h1         1 C99       0.046700
@<TRIPOS>BOND
     1     1     2 1   
     2     1    18 1   
     3     1    19 1   
     4     2     3 1   
     5     2     6 1   
     6     2    20 1   
     7     3     4 1   
     8     3     5 1   
     9     3    21 1   
    10     4    22 1   
    11     4    23 1   
    12     4    24 1   
    13     5    25 1   
    14     6     7 1   
    15     6     8 1   
    16     6     9 1   
    17     7    26 1   
    18     8    12 1   
    19     8    27 1   
    20     9    10 1   
    21     9    13 1   
    22    10    11 2   
    23    10    12 1   
    24    12    16 2   
    25    13    14 1   
    26    13    28 1   
    27    13    29 1   
    28    14    15 1   
    29    14    17 1   
@<TRIPOS>SUBSTRUCTURE
     1 C99         1 TEMP              0 ****  ****    0 ROOT
