@<TRIPOS>MOLECULE
C99
   29    29     1     0     0
SMALL
bcc


@<TRIPOS>ATOM
      1 N1          -1.7450     0.0370     1.6550 n8         1 C99      -0.890800
      2 CA1         -1.4360    -0.8080     0.5210 c3         1 C99       0.119500
      3 CB1         -2.6470    -1.2950    -0.2970 c3         1 C99       0.111100
      4 CG1         -3.5840    -2.1360     0.5560 c3         1 C99      -0.132100
      5 OG1         -3.3330    -0.2180    -0.9190 oh         1 C99      -0.594800
      6 C1          -0.3780    -0.0980    -0.3560 c5         1 C99       0.524600
      7 O1          -0.0930    -0.8630    -1.4530 oh         1 C99      -0.673800
      8 N2          -0.8150     1.2490    -0.6940 ns         1 C99      -0.594900
      9 N3           0.8200     0.1910     0.4200 n          1 C99      -0.476800
     10 C2           1.0160     1.4960     0.6280 c          1 C99       0.642500
     11 O2           1.9220     2.0390     1.2250 o          1 C99      -0.604500
     12 CA2         -0.1330     2.2130    -0.0700 c          1 C99       0.630500
     13 CA3          1.7800    -0.8220     0.7760 c3         1 C99      -0.041000
     14 C3           2.8060    -1.1110    -0.3430 c          1 C99       0.922600
     15 O3           2.4590    -0.8160    -1.5180 o          1 C99      -0.804800
     16 O4          -0.3240     3.4110    -0.0570 o          1 C99      -0.628500
     17 OXT          3.8680    -1.6330     0.0040 o          1 C99      -0.804800
     18 HN11        -2.4210     0.7540     1.4220 hn         1 C99       0.337800
     19 HN12        -2.1460    -0.5070     2.4060 hn         1 C99       0.337800
     20 HA1         -0.9500    -1.7100     0.9080 h1         1 C99       0.078700
     21 HB1         -2.2770    -1.9160    -1.1150 h1         1 C99       0.106700
     22 HG11        -3.9850    -1.5670     1.3980 hc         1 C99       0.036367
     23 HG12        -4.4240    -2.4990    -0.0370 hc         1 C99       0.036367
     24 HG13        -3.0620    -3.0030     0.9610 hc         1 C99       0.036367
     25 HOG1        -3.9210     0.1930    -0.2770 ho         1 C99       0.386000
     26 HO1          0.8990    -0.7900    -1.6340 ho         1 C99       0.518000
     27 HN2         -1.7010     1.3930    -1.1580 hn         1 C99       0.327500
     28 HA31         2.2940    -0.5110     1.6850 h1         1 C99       0.046700
     29 HA32         1.2580    -1.7510     1.0230 h1         1 C99       0.046700
@<TRIPOS>BOND
     1     1     2 1   
     2     1    18 1   
     3     1    19 1   
     4     2     3 1   
     5     2     6 1   
     6     2    20 1   
     7     3     4 1   
     8     3     5 1   
     9     3    21 1   
    10     4    22 1   
    11     4    23 1   
    12     4    24 1   
    13     5    25 1   
    14     6     7 1   
    15     6     8 1   
    16     6     9 1   
    17     7    26 1   
    18     8    12 1   
    19     8    27 1   
    20     9    10 1   
    21     9    13 1   
    22    10    11 2   
    23    10    12 1   
    24    12    16 2   
    25    13    14 1   
    26    13    28 1   
    27    13    29 1   
    28    14    15 1   
    29    14    17 1   
@<TRIPOS>SUBSTRUCTURE
     1 C99         1 TEMP              0 ****  ****    0 ROOT
