@<TRIPOS>MOLECULE
C9A
   70    74     1     0     0
SMALL
bcc


@<TRIPOS>ATOM
      1 C1           7.0530     4.2960    -1.2290 c3         1 C9A       0.152100
      2 N2           5.9140     3.4340    -1.0120 n3         1 C9A      -0.719600
      3 C3           4.8690     3.6660    -1.9870 c6         1 C9A       0.158800
      4 C4           3.7200     2.7000    -1.7800 c6         1 C9A       0.193800
      5 N5           3.1960     2.8250    -0.4210 nh         1 C9A      -0.639000
      6 C6           4.2410     2.6040     0.5620 c6         1 C9A       0.193800
      7 C7           5.3830     3.5740     0.3270 c6         1 C9A       0.158800
      8 C8           1.9530     2.2680    -0.1690 ca         1 C9A       0.162600
      9 C9           0.8070     2.7410    -0.8410 ca         1 C9A       0.078900
     10 F10          0.9470     3.7480    -1.7150 f          1 C9A      -0.134900
     11 C11         -0.4380     2.2360    -0.6130 ca         1 C9A      -0.074000
     12 C12         -0.6310     1.2210     0.3320 ca         1 C9A      -0.199600
     13 C13         -1.9920     0.7100     0.5640 c          1 C9A       0.609900
     14 O14         -2.9440     1.1650    -0.0560 o          1 C9A      -0.525100
     15 C15         -2.0630    -0.3370     1.5670 cc         1 C9A      -0.348400
     16 C16         -0.9190    -0.7530     2.1950 cd         1 C9A       0.173000
     17 N17          0.3030    -0.2640     1.9670 na         1 C9A      -0.498800
     18 C18          1.4420    -0.8230     2.6840 c3         1 C9A       0.254100
     19 C19          2.3830    -1.5940     1.7930 ca         1 C9A      -0.065300
     20 C20          1.9190    -2.3200     0.7010 ca         1 C9A      -0.135500
     21 C21          2.8050    -3.0070    -0.1120 ca         1 C9A      -0.030000
     22 C22          4.1620    -2.9640     0.1770 ca         1 C9A      -0.259500
     23 C23          4.6420    -2.2640     1.2730 ca         1 C9A      -0.030000
     24 C24          3.7450    -1.5800     2.0760 ca         1 C9A      -0.135500
     25 S25          5.3050    -3.7910    -0.9000 sy         1 C9A       1.087300
     26 C26          5.6520    -2.5710    -2.1470 c3         1 C9A      -0.224300
     27 O27          6.5330    -4.0520    -0.1530 o          1 C9A      -0.589300
     28 O28          4.6140    -4.9120    -1.5330 o          1 C9A      -0.589300
     29 C29          0.4820     0.7460     1.0310 ca         1 C9A       0.177600
     30 C30          1.7520     1.2680     0.7730 ca         1 C9A      -0.226000
     31 C31         -3.2960    -1.0260     1.9940 c          1 C9A       0.677300
     32 O32         -3.3250    -1.8450     2.8880 o          1 C9A      -0.581000
     33 O33         -4.3690    -0.6740     1.3070 os         1 C9A      -0.377900
     34 C34         -5.6110    -1.2940     1.6690 c3         1 C9A       0.189700
     35 C35         -6.6450    -0.7750     0.7190 ca         1 C9A      -0.091300
     36 C36         -7.3110     0.4180     0.9780 ca         1 C9A      -0.091500
     37 C37         -8.2510     0.9180     0.0900 ca         1 C9A      -0.126500
     38 C38         -8.5230     0.2090    -1.0700 ca         1 C9A       0.039400
     39 CL39        -9.7010     0.8220    -2.1840 cl         1 C9A      -0.114400
     40 C40         -7.8760    -0.9830    -1.3520 ca         1 C9A      -0.126500
     41 C41         -6.9370    -1.4660    -0.4520 ca         1 C9A      -0.091500
     42 H1           7.8420     4.0600    -0.5130 h1         1 C9A       0.034367
     43 H1A          7.4530     4.1380    -2.2320 h1         1 C9A       0.034367
     44 H1B          6.8140     5.3660    -1.1260 h1         1 C9A       0.034367
     45 H3           4.4840     4.6990    -1.9400 h1         1 C9A       0.044700
     46 H3A          5.2740     3.5160    -2.9900 h1         1 C9A       0.044700
     47 H4           2.9460     2.9080    -2.5140 h1         1 C9A       0.046450
     48 H4A          4.0690     1.6730    -1.9560 h1         1 C9A       0.046450
     49 H6           3.8390     2.7710     1.5630 h1         1 C9A       0.046450
     50 H6A          4.6290     1.5740     0.5220 h1         1 C9A       0.046450
     51 H7           6.1710     3.3620     1.0530 h1         1 C9A       0.044700
     52 H7A          5.0280     4.6010     0.5230 h1         1 C9A       0.044700
     53 H11         -1.2880     2.6390    -1.1470 ha         1 C9A       0.179000
     54 H16         -0.9690    -1.5380     2.9370 h4         1 C9A       0.174000
     55 H18          1.9720    -0.0220     3.2000 h1         1 C9A       0.076200
     56 H18A         1.0500    -1.4780     3.4620 h1         1 C9A       0.076200
     57 H20          0.8640    -2.3510     0.4630 ha         1 C9A       0.143000
     58 H21          2.4320    -3.5620    -0.9620 ha         1 C9A       0.161000
     59 H23          5.6990    -2.2370     1.5020 ha         1 C9A       0.161000
     60 H24          4.1150    -1.0190     2.9260 ha         1 C9A       0.143000
     61 H26          6.1170    -1.7030    -1.6860 h1         1 C9A       0.104367
     62 H26A         6.3350    -3.0240    -2.8650 h1         1 C9A       0.104367
     63 H26B         4.7250    -2.2880    -2.6420 h1         1 C9A       0.104367
     64 H30          2.6140     0.8810     1.2920 ha         1 C9A       0.143000
     65 H34         -5.5250    -2.3810     1.5950 h1         1 C9A       0.054700
     66 H34A        -5.8650    -1.0440     2.7010 h1         1 C9A       0.054700
     67 H36         -7.1010     0.9690     1.8860 ha         1 C9A       0.137000
     68 H37         -8.7640     1.8460     0.3020 ha         1 C9A       0.147500
     69 H40         -8.0980    -1.5310    -2.2570 ha         1 C9A       0.147500
     70 H41         -6.4350    -2.4010    -0.6690 ha         1 C9A       0.137000
@<TRIPOS>BOND
     1     1     2 1   
     2     1    42 1   
     3     1    43 1   
     4     1    44 1   
     5     2     3 1   
     6     2     7 1   
     7     3     4 1   
     8     3    45 1   
     9     3    46 1   
    10     4     5 1   
    11     4    47 1   
    12     4    48 1   
    13     5     6 1   
    14     5     8 1   
    15     6     7 1   
    16     6    49 1   
    17     6    50 1   
    18     7    51 1   
    19     7    52 1   
    20     8     9 ar  
    21     8    30 ar  
    22     9    10 1   
    23     9    11 ar  
    24    11    12 ar  
    25    11    53 1   
    26    12    13 1   
    27    12    29 ar  
    28    13    14 2   
    29    13    15 1   
    30    15    16 2   
    31    15    31 1   
    32    16    17 1   
    33    16    54 1   
    34    17    18 1   
    35    17    29 1   
    36    18    19 1   
    37    18    55 1   
    38    18    56 1   
    39    19    20 ar  
    40    19    24 ar  
    41    20    21 ar  
    42    20    57 1   
    43    21    22 ar  
    44    21    58 1   
    45    22    23 ar  
    46    22    25 1   
    47    23    24 ar  
    48    23    59 1   
    49    24    60 1   
    50    25    26 1   
    51    25    27 2   
    52    25    28 2   
    53    26    61 1   
    54    26    62 1   
    55    26    63 1   
    56    29    30 ar  
    57    30    64 1   
    58    31    32 2   
    59    31    33 1   
    60    33    34 1   
    61    34    35 1   
    62    34    65 1   
    63    34    66 1   
    64    35    36 ar  
    65    35    41 ar  
    66    36    37 ar  
    67    36    67 1   
    68    37    38 ar  
    69    37    68 1   
    70    38    39 1   
    71    38    40 ar  
    72    40    41 ar  
    73    40    69 1   
    74    41    70 1   
@<TRIPOS>SUBSTRUCTURE
     1 C9A         1 TEMP              0 ****  ****    0 ROOT
