@<TRIPOS>MOLECULE
C9A
   70    74     1     0     0
SMALL
No Charge or Current Charge


@<TRIPOS>ATOM
      1 C1           7.0990     4.3700    -0.9640 c3         1 C9A       0.152100
      2 N2           6.0170     3.4320    -0.5930 n3         1 C9A      -0.719600
      3 C3           5.2470     2.9400    -1.7770 c6         1 C9A       0.158800
      4 C4           4.1300     1.9190    -1.3900 c6         1 C9A       0.193800
      5 N5           3.2160     2.4440    -0.3290 nh         1 C9A      -0.777400
      6 C6           3.9620     2.9970     0.8460 c6         1 C9A       0.193800
      7 C7           5.0780     4.0050     0.4200 c6         1 C9A       0.158800
      8 C8           1.9400     1.8450    -0.1620 ca         1 C9A       0.301000
      9 C9           0.9270     1.9820    -1.1410 ca         1 C9A       0.114000
     10 F10          1.1270     2.7350    -2.2510 f          1 C9A      -0.170000
     11 C11         -0.3150     1.3590    -0.9620 ca         1 C9A      -0.056000
     12 C12         -0.5480     0.5670     0.1820 ca         1 C9A      -0.199600
     13 C13         -1.8680    -0.0460     0.4360 c          1 C9A       0.609900
     14 O14         -2.7010    -0.1170    -0.4590 o          1 C9A      -0.525100
     15 C15         -2.0690    -0.4680     1.8310 cc         1 C9A      -0.348400
     16 C16         -1.0120    -0.6540     2.7100 cd         1 C9A       0.123000
     17 N17          0.2880    -0.5440     2.1800 na         1 C9A      -0.637200
     18 C18          1.4560    -1.2740     2.7500 c3         1 C9A       0.254100
     19 C19          2.4330    -1.8120     1.7000 ca         1 C9A      -0.065300
     20 C20          1.9600    -2.4530     0.5360 ca         1 C9A      -0.117500
     21 C21          2.8560    -2.8840    -0.4570 ca         1 C9A      -0.012000
     22 C22          4.2420    -2.6850    -0.2910 ca         1 C9A      -0.259500
     23 C23          4.7210    -2.0600     0.8780 ca         1 C9A      -0.012000
     24 C24          3.8200    -1.6300     1.8670 ca         1 C9A      -0.117500
     25 S25          5.3960    -3.1950    -1.5800 sy         1 C9A       1.056500
     26 C26          5.5820    -1.7080    -2.5630 c3         1 C9A      -0.335100
     27 O27          6.7050    -3.4570    -0.9680 o          1 C9A      -0.518500
     28 O28          4.7430    -4.1910    -2.4400 o          1 C9A      -0.518500
     29 C29          0.4540     0.3810     1.1330 ca         1 C9A       0.316000
     30 C30          1.6810     1.0570     0.9720 ca         1 C9A      -0.208000
     31 C31         -3.4190    -0.7820     2.3500 c          1 C9A       0.628300
     32 O32         -3.5950    -1.2000     3.4870 o          1 C9A      -0.532000
     33 O33         -4.4650    -0.5180     1.5090 os         1 C9A      -0.401100
     34 C34         -5.7990    -0.7800     1.9730 c3         1 C9A       0.212900
     35 C35         -6.7720    -0.4080     0.8630 ca         1 C9A      -0.091300
     36 C36         -7.3370     0.8820     0.8150 ca         1 C9A      -0.073500
     37 C37         -8.2330     1.2250    -0.2140 ca         1 C9A      -0.108500
     38 C38         -8.5670     0.2800    -1.1970 ca         1 C9A       0.131000
     39 Cl39        -9.6880     0.7090    -2.4830 cl         1 C9A      -0.206000
     40 C40         -8.0070    -1.0070    -1.1570 ca         1 C9A      -0.108500
     41 C41         -7.1100    -1.3510    -0.1290 ca         1 C9A      -0.073500
     42 H1           7.6710     4.6720    -0.0780 h1         1 C9A       0.034367
     43 H1A          7.7940     3.8990    -1.6720 h1         1 C9A       0.034367
     44 H1B          6.6900     5.2750    -1.4350 h1         1 C9A       0.034367
     45 H3           4.7750     3.7870    -2.2970 h1         1 C9A       0.044700
     46 H3A          5.9240     2.4600    -2.4990 h1         1 C9A       0.044700
     47 H4           3.5620     1.6640    -2.2970 h1         1 C9A       0.046450
     48 H4A          4.6060     0.9920    -1.0370 h1         1 C9A       0.046450
     49 H6           3.2690     3.5110     1.5280 h1         1 C9A       0.046450
     50 H6A          4.4310     2.1770     1.4090 h1         1 C9A       0.046450
     51 H7           5.6290     4.3150     1.3200 h1         1 C9A       0.044700
     52 H7A          4.5930     4.9070     0.0170 h1         1 C9A       0.044700
     53 H11         -1.0930     1.5020    -1.7080 ha         1 C9A       0.161000
     54 H16         -1.1170    -1.0360     3.7270 h4         1 C9A       0.224000
     55 H18          1.9860    -0.6070     3.4420 h1         1 C9A       0.076200
     56 H18A         1.0910    -2.1240     3.3420 h1         1 C9A       0.076200
     57 H20          0.8920    -2.6000     0.3910 ha         1 C9A       0.125000
     58 H21          2.4660    -3.3620    -1.3550 ha         1 C9A       0.143000
     59 H23          5.7880    -1.8940     1.0220 ha         1 C9A       0.143000
     60 H24          4.2030    -1.1350     2.7560 ha         1 C9A       0.125000
     61 H26          5.9910    -0.9220    -1.9190 h1         1 C9A       0.104367
     62 H26A         6.2660    -1.9280    -3.3880 h1         1 C9A       0.104367
     63 H26B         4.5950    -1.4240    -2.9420 h1         1 C9A       0.104367
     64 H30          2.4620     0.9350     1.7100 ha         1 C9A       0.125000
     65 H34         -5.9210    -1.8410     2.2280 h1         1 C9A       0.054700
     66 H34A        -6.0230    -0.1880     2.8720 h1         1 C9A       0.054700
     67 H36         -7.0800     1.6200     1.5720 ha         1 C9A       0.119000
     68 H37         -8.6680     2.2210    -0.2490 ha         1 C9A       0.129500
     69 H40         -8.2650    -1.7360    -1.9200 ha         1 C9A       0.129500
     70 H41         -6.6760    -2.3480    -0.1050 ha         1 C9A       0.119000
@<TRIPOS>BOND
     1     1     2 1   
     2     1    42 1   
     3     1    43 1   
     4     1    44 1   
     5     2     3 1   
     6     2     7 1   
     7     3     4 1   
     8     3    45 1   
     9     3    46 1   
    10     4     5 1   
    11     4    47 1   
    12     4    48 1   
    13     5     6 1   
    14     5     8 1   
    15     6     7 1   
    16     6    49 1   
    17     6    50 1   
    18     7    51 1   
    19     7    52 1   
    20     8     9 ar  
    21     8    30 ar  
    22     9    10 1   
    23     9    11 ar  
    24    11    12 ar  
    25    11    53 1   
    26    12    13 1   
    27    12    29 ar  
    28    13    14 2   
    29    13    15 1   
    30    15    16 2   
    31    15    31 1   
    32    16    17 1   
    33    16    54 1   
    34    17    18 1   
    35    17    29 1   
    36    18    19 1   
    37    18    55 1   
    38    18    56 1   
    39    19    20 ar  
    40    19    24 ar  
    41    20    21 ar  
    42    20    57 1   
    43    21    22 ar  
    44    21    58 1   
    45    22    23 ar  
    46    22    25 1   
    47    23    24 ar  
    48    23    59 1   
    49    24    60 1   
    50    25    26 1   
    51    25    27 2   
    52    25    28 2   
    53    26    61 1   
    54    26    62 1   
    55    26    63 1   
    56    29    30 ar  
    57    30    64 1   
    58    31    32 2   
    59    31    33 1   
    60    33    34 1   
    61    34    35 1   
    62    34    65 1   
    63    34    66 1   
    64    35    36 ar  
    65    35    41 ar  
    66    36    37 ar  
    67    36    67 1   
    68    37    38 ar  
    69    37    68 1   
    70    38    39 1   
    71    38    40 ar  
    72    40    41 ar  
    73    40    69 1   
    74    41    70 1   
@<TRIPOS>SUBSTRUCTURE
     1 C9A         1 TEMP              0 ****  ****    0 ROOT
