@<TRIPOS>MOLECULE
C9B
   37    40     1     0     0
SMALL
abcg2


@<TRIPOS>ATOM
      1 C1          -2.9430    -0.9170    -0.1460 ca         1 C9B       0.242000
      2 C2          -1.8960     0.0060     0.1500 ca         1 C9B      -0.204000
      3 C3          -0.8920     0.2510    -0.8330 ca         1 C9B       0.398000
      4 C7           1.7020    -0.1800     0.7460 ca         1 C9B      -0.122300
      5 C8           2.9500    -0.3470     0.1440 ca         1 C9B      -0.091000
      6 C9           3.6310    -1.5530     0.2500 ca         1 C9B      -0.114000
      7 C10          3.0820    -2.6130     0.9590 ca         1 C9B      -0.099000
      8 C11          1.8480    -2.4550     1.5740 ca         1 C9B      -0.114000
      9 C12          1.1690    -1.2490     1.4670 ca         1 C9B      -0.091000
     10 C13          1.6570     2.3920     0.8060 c6         1 C9B       0.155600
     11 C14          1.6670     2.8300    -1.4650 c6         1 C9B       0.144600
     12 C15          0.9310     1.5420    -1.7770 c6         1 C9B       0.163800
     13 C16         -2.2280     0.4860     1.4140 cc         1 C9B      -0.187100
     14 N1          -3.0770    -1.6020    -1.3010 nb         1 C9B      -0.652000
     15 C4          -1.0700    -0.4440    -2.0170 ca         1 C9B      -0.278000
     16 N2           0.1300     1.1460    -0.6310 nh         1 C9B      -0.791400
     17 N3          -3.3480    -0.1500     1.7570 na         1 C9B       0.014500
     18 C5          -2.1520    -1.3350    -2.1850 ca         1 C9B       0.393900
     19 C6           0.8800     1.0900     0.6330 c6         1 C9B       0.235800
     20 N4          -3.8150    -1.0010     0.8570 nc         1 C9B      -0.265400
     21 O1           2.4580     2.7120    -0.3040 os         1 C9B      -0.442000
     22 H1           3.4090     0.4640    -0.4020 ha         1 C9B       0.118000
     23 H2           4.5980    -1.6620    -0.2240 ha         1 C9B       0.114000
     24 H3           3.6150    -3.5510     1.0370 ha         1 C9B       0.114000
     25 H4           1.4120    -3.2680     2.1400 ha         1 C9B       0.114000
     26 H5           0.2110    -1.1350     1.9580 ha         1 C9B       0.118000
     27 H6           0.9320     3.1970     0.9930 h1         1 C9B       0.056200
     28 H7           2.3090     2.3150     1.6760 h1         1 C9B       0.056200
     29 H8           2.3290     3.0840    -2.2930 h1         1 C9B       0.054700
     30 H9           0.9380     3.6430    -1.3460 h1         1 C9B       0.054700
     31 H10          0.2720     1.7300    -2.6250 h1         1 C9B       0.054200
     32 H11          1.6390     0.7600    -2.0820 h1         1 C9B       0.054200
     33 H12         -1.7880     1.2190     2.0680 h4         1 C9B       0.225000
     34 H13         -0.3710    -0.3530    -2.8350 ha         1 C9B       0.120000
     35 H14         -3.8470    -0.0280     2.6250 hn         1 C9B       0.374000
     36 H15         -2.2210    -1.8640    -3.1310 h4         1 C9B       0.014100
     37 H16          0.1670     1.0780     1.4540 h1         1 C9B       0.062700
@<TRIPOS>BOND
     1     1     2 ar  
     2     1    14 ar  
     3     1    20 2   
     4     2     3 ar  
     5     2    13 2   
     6     3    15 ar  
     7     3    16 1   
     8     4     5 ar  
     9     4     9 ar  
    10     4    19 1   
    11     5     6 ar  
    12     5    22 1   
    13     6     7 ar  
    14     6    23 1   
    15     7     8 ar  
    16     7    24 1   
    17     8     9 ar  
    18     8    25 1   
    19     9    26 1   
    20    10    19 1   
    21    10    21 1   
    22    10    27 1   
    23    10    28 1   
    24    11    12 1   
    25    11    21 1   
    26    11    29 1   
    27    11    30 1   
    28    12    16 1   
    29    12    31 1   
    30    12    32 1   
    31    13    17 1   
    32    13    33 1   
    33    14    18 ar  
    34    15    18 ar  
    35    15    34 1   
    36    16    19 1   
    37    17    20 1   
    38    17    35 1   
    39    18    36 1   
    40    19    37 1   
@<TRIPOS>SUBSTRUCTURE
     1 C9B         1 TEMP              0 ****  ****    0 ROOT
