@<TRIPOS>MOLECULE
C9B
   37    40     1     0     0
SMALL
No Charge or Current Charge


@<TRIPOS>ATOM
      1 C1          -3.0240    -0.8920    -0.1000 ca         1 C9B       0.242000
      2 C2          -2.0530     0.0700     0.0730 ca         1 C9B      -0.204000
      3 C3          -0.9230     0.1490    -0.7500 ca         1 C9B       0.398000
      4 C7           1.7400    -0.2780     0.6930 ca         1 C9B      -0.122300
      5 C8           2.9970    -0.3810     0.0560 ca         1 C9B      -0.091000
      6 C9           3.7070    -1.5940     0.0740 ca         1 C9B      -0.114000
      7 C10          3.1690    -2.7170     0.7230 ca         1 C9B      -0.099000
      8 C11          1.9180    -2.6270     1.3530 ca         1 C9B      -0.114000
      9 C12          1.2070    -1.4150     1.3370 ca         1 C9B      -0.091000
     10 C13          1.7620     2.3310     0.9370 c6         1 C9B       0.155600
     11 C14          1.5430     3.0310    -1.3530 c6         1 C9B       0.144600
     12 C15          0.7770     1.7300    -1.7270 c6         1 C9B       0.163800
     13 C16         -2.4630     0.8810     1.1710 cc         1 C9B      -0.187100
     14 N1          -2.9320    -1.8110    -1.0770 nb         1 C9B      -0.652000
     15 C4          -0.8320    -0.8060    -1.7690 ca         1 C9B      -0.278000
     16 N2           0.0770     1.1230    -0.5490 nh         1 C9B      -0.791400
     17 N3          -3.6660     0.3430     1.6050 na         1 C9B       0.014500
     18 C5          -1.8510    -1.7630    -1.8930 ca         1 C9B       0.393900
     19 C6           0.9210     1.0290     0.6870 c6         1 C9B       0.235800
     20 N4          -4.0540    -0.7640     0.8400 nc         1 C9B      -0.265400
     21 O1           2.4490     2.7840    -0.2560 os         1 C9B      -0.442000
     22 H1           3.4280     0.4710    -0.4620 ha         1 C9B       0.118000
     23 H2           4.6740    -1.6640    -0.4190 ha         1 C9B       0.114000
     24 H3           3.7200    -3.6560     0.7350 ha         1 C9B       0.114000
     25 H4           1.4970    -3.4970     1.8520 ha         1 C9B       0.114000
     26 H5           0.2350    -1.3610     1.8220 ha         1 C9B       0.118000
     27 H6           1.0920     3.1320     1.2790 h1         1 C9B       0.056200
     28 H7           2.4980     2.1520     1.7330 h1         1 C9B       0.056200
     29 H8           2.1170     3.3880    -2.2200 h1         1 C9B       0.054700
     30 H9           0.8310     3.8180    -1.0670 h1         1 C9B       0.054700
     31 H10          0.0480     1.9710    -2.5160 h1         1 C9B       0.054200
     32 H11          1.4940     1.0120    -2.1520 h1         1 C9B       0.054200
     33 H12         -2.0310     1.7590     1.6410 h4         1 C9B       0.225000
     34 H13          0.0150    -0.8300    -2.4440 ha         1 C9B       0.120000
     35 H14         -4.2430     0.6750     2.3740 hn         1 C9B       0.374000
     36 H15         -1.8010    -2.5220    -2.6730 h4         1 C9B       0.014100
     37 H16          0.2470     0.9690     1.5540 h1         1 C9B       0.062700
@<TRIPOS>BOND
     1     1     2 ar  
     2     1    14 ar  
     3     1    20 2   
     4     2     3 ar  
     5     2    13 2   
     6     3    15 ar  
     7     3    16 1   
     8     4     5 ar  
     9     4     9 ar  
    10     4    19 1   
    11     5     6 ar  
    12     5    22 1   
    13     6     7 ar  
    14     6    23 1   
    15     7     8 ar  
    16     7    24 1   
    17     8     9 ar  
    18     8    25 1   
    19     9    26 1   
    20    10    19 1   
    21    10    21 1   
    22    10    27 1   
    23    10    28 1   
    24    11    12 1   
    25    11    21 1   
    26    11    29 1   
    27    11    30 1   
    28    12    16 1   
    29    12    31 1   
    30    12    32 1   
    31    13    17 1   
    32    13    33 1   
    33    14    18 ar  
    34    15    18 ar  
    35    15    34 1   
    36    16    19 1   
    37    17    20 1   
    38    17    35 1   
    39    18    36 1   
    40    19    37 1   
@<TRIPOS>SUBSTRUCTURE
     1 C9B         1 TEMP              0 ****  ****    0 ROOT
