@<TRIPOS>MOLECULE
C9D
   45    46     1     0     0
SMALL
abcg2


@<TRIPOS>ATOM
      1 OAF         -6.5840    -1.2600    -0.0790 o          1 C9D      -0.706200
      2 SAY         -5.9660     0.0640    -0.0520 s6         1 C9D       1.506300
      3 OAD         -6.6300     1.0710    -0.8780 o          1 C9D      -0.706200
      4 OAE         -5.5830     0.5390     1.2780 o          1 C9D      -0.706200
      5 OAR         -4.5410    -0.2930    -0.8310 os         1 C9D      -0.412000
      6 NAQ         -3.7220     0.8520    -0.9150 n7         1 C9D      -0.548900
      7 CAU         -2.5160     0.6520    -0.1330 c6         1 C9D       0.114500
      8 CAJ         -1.6620     1.9100    -0.2810 c6         1 C9D      -0.081400
      9 CB          -0.3140     1.7910     0.4270 c6         1 C9D      -0.085400
     10 CAM         -1.7100    -0.5910    -0.5330 c6         1 C9D       0.058000
     11 N           -0.4790    -0.6320     0.2390 n          1 C9D      -0.411800
     12 CAG         -0.4450    -1.2950     1.4160 c          1 C9D       0.587900
     13 OAA         -1.2890    -2.0820     1.7990 o          1 C9D      -0.565100
     14 CA           0.3850     0.5150    -0.0190 c6         1 C9D       0.021700
     15 C            1.7940     0.3530     0.5430 c          1 C9D       0.599100
     16 O            2.3330     1.1990     1.2230 o          1 C9D      -0.574100
     17 NAP          2.4010    -0.8010     0.1710 ns         1 C9D      -0.372500
     18 NAO          3.7060    -1.0240     0.4700 ns         1 C9D      -0.369500
     19 CAS          4.6960    -0.3970    -0.2160 c          1 C9D       0.606100
     20 OAB          4.4680     0.3010    -1.1880 o          1 C9D      -0.586100
     21 CAV          6.0840    -0.6540     0.3070 c5         1 C9D      -0.185700
     22 CAI          6.7550     0.6680     0.7550 c5         1 C9D      -0.102400
     23 CAH          7.9470     0.8400    -0.2100 c5         1 C9D       0.137800
     24 NAN          7.6710     0.0210    -1.3810 n7         1 C9D      -0.827400
     25 CAL          7.0070    -1.1490    -0.8380 c5         1 C9D       0.152800
     26 H1          -3.4860     0.9160    -1.9010 hn         1 C9D       0.393000
     27 H2          -2.8190     0.5490     0.9130 h1         1 C9D       0.109700
     28 H3          -1.4860     2.1020    -1.3460 hc         1 C9D       0.051200
     29 H4          -2.2080     2.7710     0.1080 hc         1 C9D       0.051200
     30 H5           0.3000     2.6600     0.1900 hc         1 C9D       0.059700
     31 H6          -0.4510     1.7730     1.5120 hc         1 C9D       0.059700
     32 H7          -2.2740    -1.5060    -0.3700 h1         1 C9D       0.072700
     33 H8          -1.4470    -0.5450    -1.5950 h1         1 C9D       0.072700
     34 H9           0.4520    -1.0840     2.0170 h5         1 C9D      -0.002800
     35 H10          0.5140     0.5590    -1.1080 h1         1 C9D       0.074700
     36 H11          1.9610    -1.4320    -0.4830 hn         1 C9D       0.351500
     37 H12          3.9020    -1.5310     1.3200 hn         1 C9D       0.335500
     38 H13          6.0560    -1.3790     1.1220 hc         1 C9D       0.063700
     39 H14          6.0690     1.5120     0.6760 hc         1 C9D       0.060700
     40 H15          7.0750     0.6140     1.7950 hc         1 C9D       0.060700
     41 H16          8.1160     1.8780    -0.4950 h1         1 C9D       0.052200
     42 H17          8.8630     0.4800     0.2660 h1         1 C9D       0.052200
     43 H18          7.0130     0.5150    -1.9710 hn         1 C9D       0.422000
     44 H20          7.7550    -1.8210    -0.4100 h1         1 C9D       0.058200
     45 H21          6.4810    -1.7030    -1.6160 h1         1 C9D       0.058200
@<TRIPOS>BOND
     1     1     2 1   
     2     2     3 1   
     3     2     4 1   
     4     2     5 1   
     5     5     6 1   
     6     6     7 1   
     7     6    26 1   
     8     7     8 1   
     9     7    10 1   
    10     7    27 1   
    11     8     9 1   
    12     8    28 1   
    13     8    29 1   
    14     9    14 1   
    15     9    30 1   
    16     9    31 1   
    17    10    11 1   
    18    10    32 1   
    19    10    33 1   
    20    11    12 1   
    21    11    14 1   
    22    12    13 2   
    23    12    34 1   
    24    14    15 1   
    25    14    35 1   
    26    15    16 2   
    27    15    17 1   
    28    17    18 1   
    29    17    36 1   
    30    18    19 1   
    31    18    37 1   
    32    19    20 2   
    33    19    21 1   
    34    21    22 1   
    35    21    25 1   
    36    21    38 1   
    37    22    23 1   
    38    22    39 1   
    39    22    40 1   
    40    23    24 1   
    41    23    41 1   
    42    23    42 1   
    43    24    25 1   
    44    24    43 1   
    45    25    44 1   
    46    25    45 1   
@<TRIPOS>SUBSTRUCTURE
     1 C9D         1 TEMP              0 ****  ****    0 ROOT
