@<TRIPOS>MOLECULE
C9D
   45    46     1     0     0
SMALL
No Charge or Current Charge


@<TRIPOS>ATOM
      1 OAF         -6.5860    -1.3380    -1.9020 o          1 C9D      -0.706200
      2 SAY         -6.0680    -0.9160    -0.5900 s6         1 C9D       1.506300
      3 OAD         -6.9920    -0.0600     0.1760 o          1 C9D      -0.706200
      4 OAE         -5.4690    -2.0070     0.1990 o          1 C9D      -0.706200
      5 OAR         -4.7770     0.0900    -0.9670 os         1 C9D      -0.412000
      6 NAQ         -4.0310     0.7500     0.1590 n7         1 C9D      -0.548900
      7 CAU         -2.5850     0.4290     0.1010 c6         1 C9D       0.114500
      8 CAJ         -1.8580     1.0190     1.3400 c6         1 C9D      -0.081400
      9 CB          -0.3250     0.7700     1.2870 c6         1 C9D      -0.085400
     10 CAM         -1.9180     0.9470    -1.2060 c6         1 C9D       0.058000
     11 N           -0.4590     0.6550    -1.2010 n          1 C9D      -0.411800
     12 CAG          0.1170    -0.3180    -2.0470 c          1 C9D       0.587900
     13 OAA         -0.5110    -0.8800    -2.9360 o          1 C9D      -0.565100
     14 CA           0.2770     1.2860    -0.0560 c6         1 C9D       0.021700
     15 C            1.8410     1.2900    -0.1520 c          1 C9D       0.599100
     16 O            2.4170     1.5890    -1.1920 o          1 C9D      -0.574100
     17 NAP          2.5540     0.9910     1.0030 ns         1 C9D      -0.372500
     18 NAO          3.9750     0.8220     1.0360 ns         1 C9D      -0.369500
     19 CAS          4.6330    -0.2540     0.4590 c          1 C9D       0.606100
     20 OAB          4.0500    -1.2180    -0.0220 o          1 C9D      -0.586100
     21 CAV          6.1650    -0.0330     0.5400 c5         1 C9D      -0.185700
     22 CAI          6.8120    -0.0700    -0.8800 c5         1 C9D      -0.102400
     23 CAH          8.1720    -0.7180    -0.5580 c5         1 C9D       0.137800
     24 NAN          7.7630    -1.8400     0.3070 n7         1 C9D      -0.827400
     25 CAL          6.8330    -1.2270     1.2890 c5         1 C9D       0.152800
     26 H1          -4.2010     1.7610     0.0620 hn         1 C9D       0.393000
     27 H2          -2.4700    -0.6650     0.1280 h1         1 C9D       0.109700
     28 H3          -2.0470     2.1000     1.4000 hc         1 C9D       0.051200
     29 H4          -2.2710     0.5800     2.2580 hc         1 C9D       0.051200
     30 H5           0.1370     1.2830     2.1430 hc         1 C9D       0.059700
     31 H6          -0.1180    -0.3030     1.4040 hc         1 C9D       0.059700
     32 H7          -2.4020     0.4830    -2.0760 h1         1 C9D       0.072700
     33 H8          -2.0680     2.0330    -1.2930 h1         1 C9D       0.072700
     34 H9           1.1770    -0.5350    -1.8260 h5         1 C9D      -0.002800
     35 H10          0.0460     2.3600    -0.0930 h1         1 C9D       0.074700
     36 H11          2.0380     0.7100     1.8330 hn         1 C9D       0.351500
     37 H12          4.5310     1.6090     1.3630 hn         1 C9D       0.335500
     38 H13          6.3990     0.9110     1.0480 hc         1 C9D       0.063700
     39 H14          6.2420    -0.6870    -1.5860 hc         1 C9D       0.060700
     40 H15          6.9140     0.9270    -1.3260 hc         1 C9D       0.060700
     41 H16          8.6970    -1.0610    -1.4610 h1         1 C9D       0.052200
     42 H17          8.8330    -0.0220    -0.0190 h1         1 C9D       0.052200
     43 H18          7.2230    -2.4960    -0.2720 hn         1 C9D       0.422000
     44 H20          7.3940    -0.8550     2.1590 h1         1 C9D       0.058200
     45 H21          6.1070    -1.9630     1.6650 h1         1 C9D       0.058200
@<TRIPOS>BOND
     1     1     2 1   
     2     2     3 1   
     3     2     4 1   
     4     2     5 1   
     5     5     6 1   
     6     6     7 1   
     7     6    26 1   
     8     7     8 1   
     9     7    10 1   
    10     7    27 1   
    11     8     9 1   
    12     8    28 1   
    13     8    29 1   
    14     9    14 1   
    15     9    30 1   
    16     9    31 1   
    17    10    11 1   
    18    10    32 1   
    19    10    33 1   
    20    11    12 1   
    21    11    14 1   
    22    12    13 2   
    23    12    34 1   
    24    14    15 1   
    25    14    35 1   
    26    15    16 2   
    27    15    17 1   
    28    17    18 1   
    29    17    36 1   
    30    18    19 1   
    31    18    37 1   
    32    19    20 2   
    33    19    21 1   
    34    21    22 1   
    35    21    25 1   
    36    21    38 1   
    37    22    23 1   
    38    22    39 1   
    39    22    40 1   
    40    23    24 1   
    41    23    41 1   
    42    23    42 1   
    43    24    25 1   
    44    24    43 1   
    45    25    44 1   
    46    25    45 1   
@<TRIPOS>SUBSTRUCTURE
     1 C9D         1 TEMP              0 ****  ****    0 ROOT
