@<TRIPOS>MOLECULE
C9E
   24    25     1     0     0
SMALL
No Charge or Current Charge


@<TRIPOS>ATOM
      1 C1           2.3810    -0.4040     0.0040 ca         1 C9E       0.352500
      2 C2          -4.8290    -0.5160    -0.0310 c3         1 C9E      -0.098100
      3 C3          -3.7340     0.5630    -0.0280 c3         1 C9E       0.168600
      4 C7           1.6750     1.7570    -0.0040 cc         1 C9E      -0.220200
      5 C8          -0.0510    -0.1770    -0.0080 ca         1 C9E      -0.061600
      6 C9           1.2460     0.3840    -0.0030 ca         1 C9E      -0.087800
      7 C10          3.0590     1.7530     0.0030 cd         1 C9E      -0.151100
      8 N1           2.3420    -1.7490     0.0070 nb         1 C9E      -0.663000
      9 N2           3.5000     0.4080     0.0080 na         1 C9E      -0.325400
     10 C5           1.1170    -2.3280     0.0020 ca         1 C9E       0.337900
     11 C6          -0.0860    -1.5940    -0.0060 ca         1 C9E      -0.138000
     12 C4          -1.3230     0.6500    -0.0170 c          1 C9E       0.609700
     13 O2          -1.3400     1.8750    -0.0190 o          1 C9E      -0.486000
     14 O1          -2.4650    -0.1120    -0.0210 os         1 C9E      -0.446100
     15 H1          -4.7420    -1.1510    -0.9210 hc         1 C9E       0.047033
     16 H2          -4.7510    -1.1480     0.8610 hc         1 C9E       0.047033
     17 H3          -5.8210    -0.0490    -0.0370 hc         1 C9E       0.047033
     18 H4          -3.8380     1.1930    -0.9220 h1         1 C9E       0.049700
     19 H5          -3.8470     1.1970     0.8620 h1         1 C9E       0.049700
     20 H6           1.0560     2.6520    -0.0090 ha         1 C9E       0.228000
     21 H7           3.7530     2.5930     0.0050 h4         1 C9E       0.217000
     22 H8           4.4580     0.0790     0.0140 hn         1 C9E       0.363000
     23 H9           1.0980    -3.4170     0.0040 h4         1 C9E       0.022100
     24 H10         -1.0280    -2.1360    -0.0090 ha         1 C9E       0.137000
@<TRIPOS>BOND
     1     1     6 ar  
     2     1     8 ar  
     3     1     9 1   
     4     2     3 1   
     5     2    15 1   
     6     2    16 1   
     7     2    17 1   
     8     3    14 1   
     9     3    18 1   
    10     3    19 1   
    11     4     6 1   
    12     4     7 2   
    13     4    20 1   
    14     5     6 ar  
    15     5    11 ar  
    16     5    12 1   
    17     7     9 1   
    18     7    21 1   
    19     8    10 ar  
    20     9    22 1   
    21    10    11 ar  
    22    10    23 1   
    23    11    24 1   
    24    12    13 2   
    25    12    14 1   
@<TRIPOS>SUBSTRUCTURE
     1 C9E         1 TEMP              0 ****  ****    0 ROOT
