@<TRIPOS>MOLECULE
C9E
   24    25     1     0     0
SMALL
abcg2


@<TRIPOS>ATOM
      1 C1           2.3040    -0.3950     0.0050 ca         1 C9E       0.352500
      2 C2          -4.7640    -0.5230    -0.0250 c3         1 C9E      -0.098100
      3 C3          -3.6940     0.5400    -0.0280 c3         1 C9E       0.168600
      4 C7           1.6580     1.7930    -0.0020 cc         1 C9E      -0.220200
      5 C8          -0.0820    -0.1820    -0.0120 ca         1 C9E      -0.061600
      6 C9           1.1650     0.4550    -0.0040 ca         1 C9E      -0.087800
      7 C10          3.0220     1.7020     0.0090 cd         1 C9E      -0.151100
      8 N1           2.3050    -1.7140     0.0060 nb         1 C9E      -0.663000
      9 N2           3.4100     0.3950     0.0120 na         1 C9E      -0.325400
     10 C5           1.1080    -2.2820    -0.0030 ca         1 C9E       0.337900
     11 C6          -0.0930    -1.5710    -0.0110 ca         1 C9E      -0.138000
     12 C4          -1.3300     0.6240    -0.0240 c          1 C9E       0.609700
     13 O2          -1.3400     1.8310    -0.0400 o          1 C9E      -0.486000
     14 O1          -2.4180    -0.1230    -0.0140 os         1 C9E      -0.446100
     15 H1          -4.6990    -1.1620    -0.9050 hc         1 C9E       0.047033
     16 H2          -4.7080    -1.1470     0.8670 hc         1 C9E       0.047033
     17 H3          -5.7420    -0.0420    -0.0340 hc         1 C9E       0.047033
     18 H4          -3.7680     1.1700    -0.9160 h1         1 C9E       0.049700
     19 H5          -3.7780     1.1850     0.8490 h1         1 C9E       0.049700
     20 H6           1.0910     2.7070    -0.0070 ha         1 C9E       0.228000
     21 H7           3.7580     2.4890     0.0130 h4         1 C9E       0.217000
     22 H8           4.3610     0.0660     0.0190 hn         1 C9E       0.363000
     23 H9           1.0860    -3.3650    -0.0020 h4         1 C9E       0.022100
     24 H10         -1.0200    -2.1260    -0.0190 ha         1 C9E       0.137000
@<TRIPOS>BOND
     1     1     6 ar  
     2     1     8 ar  
     3     1     9 1   
     4     2     3 1   
     5     2    15 1   
     6     2    16 1   
     7     2    17 1   
     8     3    14 1   
     9     3    18 1   
    10     3    19 1   
    11     4     6 1   
    12     4     7 2   
    13     4    20 1   
    14     5     6 ar  
    15     5    11 ar  
    16     5    12 1   
    17     7     9 1   
    18     7    21 1   
    19     8    10 ar  
    20     9    22 1   
    21    10    11 ar  
    22    10    23 1   
    23    11    24 1   
    24    12    13 2   
    25    12    14 1   
@<TRIPOS>SUBSTRUCTURE
     1 C9E         1 TEMP              0 ****  ****    0 ROOT
