@<TRIPOS>MOLECULE
C9F
   55    57     1     0     0
SMALL
bcc


@<TRIPOS>ATOM
      1 C10          4.3750     0.6760     0.7710 ca         1 C9F      -0.194000
      2 C13          5.8060    -2.6280     0.2930 c3         1 C9F       0.125700
      3 C15          2.0420    -0.8050     0.6510 ca         1 C9F      -0.060000
      4 C20          1.7630     3.0390    -3.2780 c3         1 C9F      -0.153100
      5 C21         -2.8110     1.7290     2.4790 ca         1 C9F      -0.073000
      6 C22         -4.0960     2.1440     2.1710 ca         1 C9F      -0.143000
      7 C24         -3.8830     1.1590    -0.0120 ca         1 C9F      -0.138000
      8 C26         -2.0880    -2.4490    -0.2390 c3         1 C9F       0.142800
      9 C28         -2.0910    -4.2160    -1.8760 c3         1 C9F       0.151100
     10 O01          0.0220    -0.3700    -1.8370 o          1 C9F      -0.600500
     11 C02         -0.6180     0.2960    -1.0490 c          1 C9F       0.703500
     12 N03         -1.8760    -0.0310    -0.6580 n          1 C9F      -0.388000
     13 C04         -2.6020     0.7140     0.2990 ca         1 C9F       0.083600
     14 C05         -2.0630     1.0030     1.5570 ca         1 C9F      -0.024100
     15 S06         -0.4760     0.3840     2.0230 ss         1 C9F      -0.264000
     16 C07          0.6480     1.3120     0.9120 c3         1 C9F       0.093700
     17 C08          1.9560     0.5700     0.8210 ca         1 C9F      -0.116300
     18 C09          3.1460     1.2960     0.8830 ca         1 C9F      -0.060000
     19 C11          4.4480    -0.7070     0.5910 ca         1 C9F       0.151100
     20 O12          5.6810    -1.2330     0.4880 os         1 C9F      -0.318900
     21 C14          3.2690    -1.4470     0.5380 ca         1 C9F      -0.194000
     22 C16         -0.0280     1.5700    -0.4460 c3         1 C9F       0.072100
     23 O17          0.9780     2.0810    -1.2930 os         1 C9F      -0.395900
     24 C18          0.5940     2.5430    -2.4860 c          1 C9F       0.648100
     25 O19         -0.5560     2.5540    -2.8410 o          1 C9F      -0.531000
     26 C23         -4.6300     1.8590     0.9210 ca         1 C9F      -0.094000
     27 N27         -2.7080    -3.6820    -0.6790 n3         1 C9F      -0.718600
     28 C29         -2.7180    -4.6750     0.3750 c3         1 C9F       0.151100
     29 H1           5.2860     1.2580     0.8240 ha         1 C9F       0.140000
     30 H2           5.4010    -3.1960     1.1340 h1         1 C9F       0.041367
     31 H3           5.3130    -2.9570    -0.6250 h1         1 C9F       0.041367
     32 H4           6.8700    -2.8350     0.2120 h1         1 C9F       0.041367
     33 H5           1.1470    -1.4130     0.6220 ha         1 C9F       0.136500
     34 H6           1.4430     3.3690    -4.2610 hc         1 C9F       0.072033
     35 H7           2.2410     3.8710    -2.7600 hc         1 C9F       0.072033
     36 H8           2.5110     2.2530    -3.3870 hc         1 C9F       0.072033
     37 H9          -2.3810     1.9610     3.4450 ha         1 C9F       0.148000
     38 H10         -4.6730     2.7000     2.8980 ha         1 C9F       0.139000
     39 H11         -4.2940     0.9610    -0.9930 ha         1 C9F       0.149000
     40 H12         -0.9910    -2.5360    -0.1720 h1         1 C9F       0.043200
     41 H13         -2.4460    -2.2250     0.7700 h1         1 C9F       0.043200
     42 H14         -2.6230    -5.1130    -2.1950 h1         1 C9F       0.031367
     43 H15         -2.1420    -3.5010    -2.6970 h1         1 C9F       0.031367
     44 H16         -1.0340    -4.4850    -1.7300 h1         1 C9F       0.031367
     45 H17          0.8340     2.2910     1.3590 h1         1 C9F       0.083700
     46 H18          3.1110     2.3690     1.0220 ha         1 C9F       0.136500
     47 H19          3.2810    -2.5210     0.4110 ha         1 C9F       0.140000
     48 H20         -0.8070     2.3240    -0.3050 h1         1 C9F       0.079700
     49 H21         -5.6260     2.1960     0.6640 ha         1 C9F       0.139000
     50 H22         -2.1290    -1.4370    -2.1690 h1         1 C9F       0.068200
     51 H23         -3.5420    -1.1720    -1.1680 h1         1 C9F       0.068200
     52 H25         -1.7100    -4.9820     0.6950 h1         1 C9F       0.031367
     53 H26         -3.2440    -4.2920     1.2500 h1         1 C9F       0.031367
     54 H27         -3.2430    -5.5690     0.0370 h1         1 C9F       0.031367
     55 C25         -2.4580    -1.2780    -1.1450 c3         1 C9F       0.104000
@<TRIPOS>BOND
     1     1    18 ar  
     2     1    19 ar  
     3     1    29 1   
     4     2    20 1   
     5     2    30 1   
     6     2    31 1   
     7     2    32 1   
     8     3    17 ar  
     9     3    21 ar  
    10     3    33 1   
    11     4    24 1   
    12     4    34 1   
    13     4    35 1   
    14     4    36 1   
    15     5     6 ar  
    16     5    14 ar  
    17     5    37 1   
    18     6    26 ar  
    19     6    38 1   
    20     7    13 ar  
    21     7    26 ar  
    22     7    39 1   
    23     8    27 1   
    24     8    40 1   
    25     8    41 1   
    26     8    55 1   
    27     9    27 1   
    28     9    42 1   
    29     9    43 1   
    30     9    44 1   
    31    10    11 2   
    32    11    12 1   
    33    11    22 1   
    34    12    13 1   
    35    12    55 1   
    36    13    14 ar  
    37    14    15 1   
    38    15    16 1   
    39    16    17 1   
    40    16    22 1   
    41    16    45 1   
    42    17    18 ar  
    43    18    46 1   
    44    19    20 1   
    45    19    21 ar  
    46    21    47 1   
    47    22    23 1   
    48    22    48 1   
    49    23    24 1   
    50    24    25 2   
    51    26    49 1   
    52    27    28 1   
    53    28    52 1   
    54    28    53 1   
    55    28    54 1   
    56    50    55 1   
    57    51    55 1   
@<TRIPOS>SUBSTRUCTURE
     1 C9F         1 TEMP              0 ****  ****    0 ROOT
