@<TRIPOS>MOLECULE
C9F
   55    57     1     0     0
SMALL
No Charge or Current Charge


@<TRIPOS>ATOM
      1 C10          4.5230     0.9030     0.9610 ca         1 C9F      -0.176000
      2 C13          6.2080    -2.3920     0.5160 c3         1 C9F       0.148900
      3 C15          2.2410    -0.7020     0.6660 ca         1 C9F      -0.042000
      4 C20          1.7760     2.9360    -3.4660 c3         1 C9F      -0.153100
      5 C21         -2.6850     1.8760     2.5550 ca         1 C9F      -0.055000
      6 C22         -3.9670     2.3490     2.2350 ca         1 C9F      -0.125000
      7 C24         -3.8910     1.1110     0.1440 ca         1 C9F      -0.120000
      8 C26         -2.3290    -2.6630    -0.2940 c3         1 C9F       0.142800
      9 C28         -2.6680    -4.2760    -2.1590 c3         1 C9F       0.151100
     10 O01         -0.0220    -0.5370    -1.7940 o          1 C9F      -0.525000
     11 C02         -0.6030     0.1610    -0.9670 c          1 C9F       0.561000
     12 N03         -1.8990    -0.1900    -0.4980 n          1 C9F      -0.228400
     13 C04         -2.6330     0.5680     0.4850 ca         1 C9F      -0.009000
     14 C05         -2.0090     1.0180     1.6700 ca         1 C9F      -0.151000
     15 S06         -0.3810     0.4380     2.1130 ss         1 C9F      -0.185000
     16 C07          0.7060     1.3370     0.9200 c3         1 C9F       0.141600
     17 C08          2.0930     0.6870     0.8670 ca         1 C9F      -0.116300
     18 C09          3.2450     1.4850     1.0150 ca         1 C9F      -0.042000
     19 C11          4.6690    -0.4780     0.7610 ca         1 C9F       0.151100
     20 O12          5.9500    -0.9910     0.7180 os         1 C9F      -0.342100
     21 C14          3.5200    -1.2830     0.6130 ca         1 C9F      -0.176000
     22 C16          0.0280     1.4940    -0.4660 c3         1 C9F       0.095300
     23 O17          1.0210     2.0250    -1.3870 os         1 C9F      -0.419100
     24 C18          0.6060     2.4600    -2.6190 c          1 C9F       0.599100
     25 O19         -0.5580     2.4770    -2.9950 o          1 C9F      -0.482000
     26 C23         -4.5650     1.9760     1.0220 ca         1 C9F      -0.076000
     27 N27         -3.0520    -3.8680    -0.7860 n3         1 C9F      -0.718600
     28 C29         -2.9630    -4.9960     0.1680 c3         1 C9F       0.151100
     29 H1           5.4050     1.5270     1.0750 ha         1 C9F       0.122000
     30 H2           5.7570    -2.9910     1.3180 h1         1 C9F       0.041367
     31 H3           5.8020    -2.7290    -0.4470 h1         1 C9F       0.041367
     32 H4           7.2880    -2.5830     0.5150 h1         1 C9F       0.041367
     33 H5           1.3670    -1.3380     0.5500 ha         1 C9F       0.118500
     34 H6           1.4640     3.2960    -4.4530 hc         1 C9F       0.072033
     35 H7           2.3280     3.6990    -2.9080 hc         1 C9F       0.072033
     36 H8           2.5090     2.1260    -3.5390 hc         1 C9F       0.072033
     37 H9          -2.2120     2.1830     3.4860 ha         1 C9F       0.130000
     38 H10         -4.4860     3.0190     2.9170 ha         1 C9F       0.121000
     39 H11         -4.3550     0.8700    -0.8100 ha         1 C9F       0.131000
     40 H12         -1.2480    -2.8590    -0.2720 h1         1 C9F       0.043200
     41 H13         -2.6340    -2.4570     0.7420 h1         1 C9F       0.043200
     42 H14         -3.2330    -5.1640    -2.4710 h1         1 C9F       0.031367
     43 H15         -2.8810    -3.4800    -2.8850 h1         1 C9F       0.031367
     44 H16         -1.5970    -4.5150    -2.2110 h1         1 C9F       0.031367
     45 H17          0.8220     2.3510     1.3230 h1         1 C9F       0.083700
     46 H18          3.1520     2.5580     1.1660 ha         1 C9F       0.118500
     47 H19          3.5980    -2.3540     0.4570 ha         1 C9F       0.122000
     48 H20         -0.7910     2.2160    -0.3590 h1         1 C9F       0.079700
     49 H21         -5.5440     2.3680     0.7560 ha         1 C9F       0.121000
     50 H22         -2.2340    -1.5010    -2.1390 h1         1 C9F       0.068200
     51 H23         -3.6540    -1.1940    -1.1470 h1         1 C9F       0.068200
     52 H25         -1.9250    -5.3380     0.2760 h1         1 C9F       0.031367
     53 H26         -3.3330    -4.6980     1.1580 h1         1 C9F       0.031367
     54 H27         -3.5700    -5.8450    -0.1760 h1         1 C9F       0.031367
     55 C25         -2.5730    -1.3680    -1.1050 c3         1 C9F       0.104000
@<TRIPOS>BOND
     1     1    18 ar  
     2     1    19 ar  
     3     1    29 1   
     4     2    20 1   
     5     2    30 1   
     6     2    31 1   
     7     2    32 1   
     8     3    17 ar  
     9     3    21 ar  
    10     3    33 1   
    11     4    24 1   
    12     4    34 1   
    13     4    35 1   
    14     4    36 1   
    15     5     6 ar  
    16     5    14 ar  
    17     5    37 1   
    18     6    26 ar  
    19     6    38 1   
    20     7    13 ar  
    21     7    26 ar  
    22     7    39 1   
    23     8    27 1   
    24     8    40 1   
    25     8    41 1   
    26     8    55 1   
    27     9    27 1   
    28     9    42 1   
    29     9    43 1   
    30     9    44 1   
    31    10    11 2   
    32    11    12 1   
    33    11    22 1   
    34    12    13 1   
    35    12    55 1   
    36    13    14 ar  
    37    14    15 1   
    38    15    16 1   
    39    16    17 1   
    40    16    22 1   
    41    16    45 1   
    42    17    18 ar  
    43    18    46 1   
    44    19    20 1   
    45    19    21 ar  
    46    21    47 1   
    47    22    23 1   
    48    22    48 1   
    49    23    24 1   
    50    24    25 2   
    51    26    49 1   
    52    27    28 1   
    53    28    52 1   
    54    28    53 1   
    55    28    54 1   
    56    50    55 1   
    57    51    55 1   
@<TRIPOS>SUBSTRUCTURE
     1 C9F         1 TEMP              0 ****  ****    0 ROOT
