@<TRIPOS>MOLECULE
C9G
   37    40     1     0     0
SMALL
abcg2


@<TRIPOS>ATOM
      1 C4           3.3150     2.3060    -0.3220 ca         1 C9G      -0.091000
      2 C5           1.9480     2.3750    -0.3290 ca         1 C9G      -0.102000
      3 C6           1.2060     1.1890    -0.1680 ca         1 C9G       0.326000
      4 N1          -2.3380     0.7450    -0.0820 na         1 C9G       0.223000
      5 C7          -0.2510     1.2120    -0.1610 cc         1 C9G       0.134000
      6 C8          -1.1280     0.1630    -0.0310 cd         1 C9G      -0.145000
      7 N2          -2.2270     2.0610    -0.2330 nd         1 C9G      -0.192800
      8 C9          -3.6090     0.1310     0.0020 ca         1 C9G      -0.047200
      9 C10         -3.8360    -1.0770    -0.6390 ca         1 C9G      -0.055500
     10 C11         -5.0760    -1.6850    -0.5450 ca         1 C9G      -0.170000
     11 C12         -6.1020    -1.0790     0.1770 ca         1 C9G       0.152100
     12 N3          -0.9780     2.3470    -0.2780 nc         1 C9G      -0.353000
     13 C13         -5.8670     0.1410     0.8110 ca         1 C9G      -0.170000
     14 C14         -4.6250     0.7400     0.7290 ca         1 C9G      -0.055500
     15 C15          3.1100    -0.0580    -0.0060 ca         1 C9G       0.276500
     16 N4           1.7800     0.0130    -0.0140 nb         1 C9G      -0.625000
     17 N            5.0600    -1.4600     0.1870 n          1 C9G      -0.295000
     18 C            5.6700    -2.7700     0.3660 c3         1 C9G       0.082300
     19 O           -7.3240    -1.6220     0.2950 oh         1 C9G      -0.525100
     20 C1           5.8560    -0.3560     0.0410 cc         1 C9G      -0.034400
     21 C16          3.6840    -1.4030     0.1750 c          1 C9G       0.462500
     22 C2           5.3570     0.8830    -0.1280 cd         1 C9G      -0.260200
     23 C3           3.9430     1.0590    -0.1540 ca         1 C9G      -0.034800
     24 O1           3.0130    -2.4130     0.3080 o          1 C9G      -0.517000
     25 H1           3.9130     3.1990    -0.4460 ha         1 C9G       0.125000
     26 H2           1.4400     3.3210    -0.4580 ha         1 C9G       0.147000
     27 H3          -0.9820    -0.8940     0.1090 h4         1 C9G       0.189000
     28 H4          -3.0580    -1.5470    -1.2260 ha         1 C9G       0.136000
     29 H5          -5.2440    -2.6300    -1.0490 ha         1 C9G       0.130000
     30 H6          -6.6580     0.6140     1.3790 ha         1 C9G       0.130000
     31 H7          -4.4470     1.6780     1.2370 ha         1 C9G       0.136000
     32 H8           5.3800    -3.4440    -0.4370 h1         1 C9G       0.052033
     33 H9           6.7490    -2.6600     0.3570 h1         1 C9G       0.052033
     34 H10          5.3700    -3.2080     1.3160 h1         1 C9G       0.052033
     35 H11         -7.3730    -2.4570    -0.1850 ho         1 C9G       0.470000
     36 H12          6.9190    -0.5410     0.0710 h4         1 C9G       0.198000
     37 H13          6.0250     1.7250    -0.2380 ha         1 C9G       0.201000
@<TRIPOS>BOND
     1     1     2 ar  
     2     1    23 ar  
     3     1    25 1   
     4     2     3 ar  
     5     2    26 1   
     6     3     5 1   
     7     3    16 ar  
     8     4     6 1   
     9     4     7 1   
    10     4     8 1   
    11     5     6 2   
    12     5    12 1   
    13     6    27 1   
    14     7    12 2   
    15     8     9 ar  
    16     8    14 ar  
    17     9    10 ar  
    18     9    28 1   
    19    10    11 ar  
    20    10    29 1   
    21    11    13 ar  
    22    11    19 1   
    23    13    14 ar  
    24    13    30 1   
    25    14    31 1   
    26    15    16 ar  
    27    15    21 1   
    28    15    23 ar  
    29    17    18 1   
    30    17    20 1   
    31    17    21 1   
    32    18    32 1   
    33    18    33 1   
    34    18    34 1   
    35    19    35 1   
    36    20    22 2   
    37    20    36 1   
    38    21    24 2   
    39    22    23 1   
    40    22    37 1   
@<TRIPOS>SUBSTRUCTURE
     1 C9G         1 TEMP              0 ****  ****    0 ROOT
