@<TRIPOS>MOLECULE
C9G
   37    40     1     0     0
SMALL
No Charge or Current Charge


@<TRIPOS>ATOM
      1 C4           3.3350     2.3090    -0.3820 ca         1 C9G      -0.091000
      2 C5           1.9400     2.4620    -0.4300 ca         1 C9G      -0.102000
      3 C6           1.1050     1.3370    -0.2600 ca         1 C9G       0.326000
      4 N1          -2.4230     1.0410    -0.2790 na         1 C9G       0.223000
      5 C7          -0.3650     1.4890    -0.3090 cc         1 C9G       0.134000
      6 C8          -1.2060     0.4260    -0.1440 cd         1 C9G      -0.145000
      7 N2          -2.3350     2.3930    -0.4700 nd         1 C9G      -0.192800
      8 C9          -3.5710     0.2730    -0.0870 ca         1 C9G      -0.047200
      9 C10         -3.8230    -0.8540    -0.8970 ca         1 C9G      -0.055500
     10 C11         -4.9840    -1.6230    -0.6990 ca         1 C9G      -0.170000
     11 C12         -5.8990    -1.2690     0.3060 ca         1 C9G       0.152100
     12 N3          -1.0500     2.6650    -0.5090 nc         1 C9G      -0.353000
     13 C13         -5.6550    -0.1470     1.1120 ca         1 C9G      -0.170000
     14 C14         -4.4960     0.6250     0.9180 ca         1 C9G      -0.055500
     15 C15          2.9780    -0.0630    -0.0000 ca         1 C9G       0.276500
     16 N4           1.6220     0.0970    -0.0490 nb         1 C9G      -0.625000
     17 N            4.9890    -1.5630     0.2780 n          1 C9G      -0.295000
     18 C            5.5750    -2.9050     0.5070 c3         1 C9G       0.082300
     19 O           -7.0260    -2.0080     0.5050 oh         1 C9G      -0.525100
     20 C1           5.8250    -0.4530     0.1100 cc         1 C9G      -0.034400
     21 C16          3.5690    -1.4560     0.2370 c          1 C9G       0.462500
     22 C2           5.3020     0.8020    -0.1030 cd         1 C9G      -0.260200
     23 C3           3.8600     1.0260    -0.1640 ca         1 C9G      -0.034800
     24 O1           2.8600    -2.4500     0.3870 o          1 C9G      -0.517000
     25 H1           3.9900     3.1670    -0.5110 ha         1 C9G       0.125000
     26 H2           1.5100     3.4460    -0.5980 ha         1 C9G       0.147000
     27 H3          -1.0450    -0.6270     0.0440 h4         1 C9G       0.189000
     28 H4          -3.1210    -1.1320    -1.6820 ha         1 C9G       0.136000
     29 H5          -5.1660    -2.4900    -1.3300 ha         1 C9G       0.130000
     30 H6          -6.3650     0.1270     1.8890 ha         1 C9G       0.130000
     31 H7          -4.3140     1.4940     1.5480 ha         1 C9G       0.136000
     32 H8           5.2610    -3.5880    -0.2930 h1         1 C9G       0.052033
     33 H9           6.6710    -2.8560     0.5170 h1         1 C9G       0.052033
     34 H10          5.2320    -3.3000     1.4720 h1         1 C9G       0.052033
     35 H11         -7.0330    -2.7450    -0.1420 ho         1 C9G       0.470000
     36 H12          6.8840    -0.6900     0.1670 h4         1 C9G       0.198000
     37 H13          5.9850     1.6390    -0.2280 ha         1 C9G       0.201000
@<TRIPOS>BOND
     1     1     2 ar  
     2     1    23 ar  
     3     1    25 1   
     4     2     3 ar  
     5     2    26 1   
     6     3     5 1   
     7     3    16 ar  
     8     4     6 1   
     9     4     7 1   
    10     4     8 1   
    11     5     6 2   
    12     5    12 1   
    13     6    27 1   
    14     7    12 2   
    15     8     9 ar  
    16     8    14 ar  
    17     9    10 ar  
    18     9    28 1   
    19    10    11 ar  
    20    10    29 1   
    21    11    13 ar  
    22    11    19 1   
    23    13    14 ar  
    24    13    30 1   
    25    14    31 1   
    26    15    16 ar  
    27    15    21 1   
    28    15    23 ar  
    29    17    18 1   
    30    17    20 1   
    31    17    21 1   
    32    18    32 1   
    33    18    33 1   
    34    18    34 1   
    35    19    35 1   
    36    20    22 2   
    37    20    36 1   
    38    21    24 2   
    39    22    23 1   
    40    22    37 1   
@<TRIPOS>SUBSTRUCTURE
     1 C9G         1 TEMP              0 ****  ****    0 ROOT
