@<TRIPOS>MOLECULE
C9H
   24    24     1     0     0
SMALL
abcg2


@<TRIPOS>ATOM
      1 CAA          5.6460    -0.8060     0.0230 c3         1 C9H      -0.089100
      2 CAB         -3.4880    -1.4190    -0.0530 cc         1 C9H       0.527900
      3 CAC          4.5040     0.2010     0.0270 c3         1 C9H      -0.075400
      4 CAD          3.1340    -0.4670    -0.0010 c3         1 C9H      -0.074400
      5 CAE          1.9910     0.5410     0.0040 c3         1 C9H      -0.073400
      6 CAF          0.6380    -0.1560    -0.0210 c3         1 C9H       0.069600
      7 NAG         -4.2330    -0.3450    -0.0270 nd         1 C9H      -0.528800
      8 NAH         -3.3230     0.6390    -0.0090 na         1 C9H      -0.186700
      9 NAI         -2.1550    -1.1880    -0.0540 nc         1 C9H      -0.717000
     10 SAJ         -0.6620     1.1190    -0.0080 ss         1 C9H      -0.352300
     11 CAK         -2.0870     0.1260    -0.0250 cd         1 C9H       0.523800
     12 HAA          5.5920    -1.4650     0.8910 hc         1 C9H       0.033367
     13 HAAA         5.6140    -1.4330    -0.8700 hc         1 C9H       0.033367
     14 HAAB         6.6170    -0.3090     0.0440 hc         1 C9H       0.033367
     15 HAC          4.5770     0.8370     0.9140 hc         1 C9H       0.038200
     16 HACA         4.5980     0.8680    -0.8340 hc         1 C9H       0.038200
     17 HAD          3.0570    -1.1030    -0.8900 hc         1 C9H       0.042700
     18 HADA         3.0360    -1.1340     0.8620 hc         1 C9H       0.042700
     19 HAE          2.0660     1.1730     0.8930 hc         1 C9H       0.050700
     20 HAEA         2.0830     1.2020    -0.8620 hc         1 C9H       0.050700
     21 HAF          0.5260    -0.7640    -0.9180 h1         1 C9H       0.081700
     22 HAFA         0.5100    -0.7980     0.8500 h1         1 C9H       0.081700
     23 HNAH        -3.6090     1.6060     0.0150 hn         1 C9H       0.385000
     24 HAB         -3.9120    -2.4120    -0.0730 h5         1 C9H       0.063100
@<TRIPOS>BOND
     1     1     3 1   
     2     1    12 1   
     3     1    13 1   
     4     1    14 1   
     5     2     7 2   
     6     2     9 1   
     7     2    24 1   
     8     3     4 1   
     9     3    15 1   
    10     3    16 1   
    11     4     5 1   
    12     4    17 1   
    13     4    18 1   
    14     5     6 1   
    15     5    19 1   
    16     5    20 1   
    17     6    10 1   
    18     6    21 1   
    19     6    22 1   
    20     7     8 1   
    21     8    11 1   
    22     8    23 1   
    23     9    11 2   
    24    10    11 1   
@<TRIPOS>SUBSTRUCTURE
     1 C9H         1 TEMP              0 ****  ****    0 ROOT
