@<TRIPOS>MOLECULE
C9H
   24    24     1     0     0
SMALL
No Charge or Current Charge


@<TRIPOS>ATOM
      1 CAA          5.7320    -0.8000     0.0150 c3         1 C9H      -0.089100
      2 CAB         -3.5910    -1.4080    -0.0580 cc         1 C9H       0.527900
      3 CAC          4.5620     0.2030     0.0250 c3         1 C9H      -0.075400
      4 CAD          3.1780    -0.4820     0.0030 c3         1 C9H      -0.074400
      5 CAE          2.0060     0.5230     0.0130 c3         1 C9H      -0.073400
      6 CAF          0.6260    -0.1640    -0.0080 c3         1 C9H       0.069600
      7 NAG         -4.3760    -0.3350    -0.0450 nd         1 C9H      -0.528800
      8 NAH         -3.4370     0.6760    -0.0210 na         1 C9H      -0.186700
      9 NAI         -2.2390    -1.1910    -0.0460 nc         1 C9H      -0.717000
     10 SAJ         -0.7230     1.1000     0.0050 ss         1 C9H      -0.352300
     11 CAK         -2.1850     0.1160    -0.0220 cd         1 C9H       0.523800
     12 HAA          5.6890    -1.4560     0.8930 hc         1 C9H       0.033367
     13 HAAA         5.7010    -1.4240    -0.8860 hc         1 C9H       0.033367
     14 HAAB         6.6910    -0.2690     0.0310 hc         1 C9H       0.033367
     15 HAC          4.6420     0.8340     0.9180 hc         1 C9H       0.038200
     16 HACA         4.6540     0.8660    -0.8450 hc         1 C9H       0.038200
     17 HAD          3.1030    -1.1150    -0.8910 hc         1 C9H       0.042700
     18 HADA         3.0910    -1.1460     0.8730 hc         1 C9H       0.042700
     19 HAE          2.0770     1.1550     0.9070 hc         1 C9H       0.050700
     20 HAEA         2.0890     1.1860    -0.8570 hc         1 C9H       0.050700
     21 HAF          0.5310    -0.7820    -0.9110 h1         1 C9H       0.081700
     22 HAFA         0.5190    -0.8140     0.8700 h1         1 C9H       0.081700
     23 HNAH        -3.6600     1.6660    -0.0050 hn         1 C9H       0.385000
     24 HAB         -3.9610    -2.4280    -0.0790 h5         1 C9H       0.063100
@<TRIPOS>BOND
     1     1     3 1   
     2     1    12 1   
     3     1    13 1   
     4     1    14 1   
     5     2     7 2   
     6     2     9 1   
     7     2    24 1   
     8     3     4 1   
     9     3    15 1   
    10     3    16 1   
    11     4     5 1   
    12     4    17 1   
    13     4    18 1   
    14     5     6 1   
    15     5    19 1   
    16     5    20 1   
    17     6    10 1   
    18     6    21 1   
    19     6    22 1   
    20     7     8 1   
    21     8    11 1   
    22     8    23 1   
    23     9    11 2   
    24    10    11 1   
@<TRIPOS>SUBSTRUCTURE
     1 C9H         1 TEMP              0 ****  ****    0 ROOT
