@<TRIPOS>MOLECULE
C9I
   54    57     1     0     0
SMALL
No Charge or Current Charge


@<TRIPOS>ATOM
      1 CAA         13.1210     9.1080    -0.6630 ca         1 C9I      -0.079000
      2 CAB         12.3630     8.9370     0.5160 ca         1 C9I       0.274700
      3 CAD         10.7520     7.7250    -0.6720 ca         1 C9I       0.291900
      4 CAE         11.4850     7.7900    -1.8820 ca         1 C9I      -0.039000
      5 CAF         12.6710     8.5530    -1.8740 ca         1 C9I      -0.106000
      6 CAG         12.8460     9.5430     1.8430 ce         1 C9I       0.588200
      7 CAK          9.9880     6.1610    -3.1500 c5         1 C9I       0.080000
      8 CAL          9.9530     5.8930    -4.6830 c5         1 C9I       0.067300
      9 CAN         11.0250     7.9110    -4.3790 c          1 C9I       0.711100
     10 CAP         11.0080     4.7890    -5.0020 c          1 C9I       0.584100
     11 CAR         11.1280     2.2710    -5.0650 c3         1 C9I       0.161000
     12 CAS         10.8570     1.6800    -6.4610 ca         1 C9I      -0.091300
     13 CAU         10.7730     1.2620    -3.9490 c3         1 C9I      -0.092400
     14 CAV         11.1440     1.7380    -2.5270 c3         1 C9I      -0.090100
     15 CAW         11.8220     0.8870    -7.1500 ca         1 C9I      -0.017000
     16 CAX         11.5180     0.3840    -8.4430 ca         1 C9I      -0.037000
     17 CAY         10.2720     0.6500    -9.0360 ca         1 C9I      -0.093000
     18 CAZ          9.3160     1.4060    -8.3500 ca         1 C9I      -0.103000
     19 CBA          9.6030     1.9120    -7.0750 ca         1 C9I      -0.090000
     20 CBB         13.0830     0.5680    -6.5870 ca         1 C9I      -0.106000
     21 CBC         14.0130    -0.2110    -7.2960 ca         1 C9I      -0.104000
     22 CBD         13.7030    -0.6890    -8.5770 ca         1 C9I      -0.109000
     23 CBE         12.4570    -0.3940    -9.1470 ca         1 C9I      -0.095000
     24 NAC         11.1750     8.2570     0.4980 nb         1 C9I      -0.667000
     25 NAH         10.8840     7.3250    -3.1120 n          1 C9I      -0.238400
     26 NAI         13.9050    10.2380     1.9840 n2         1 C9I      -0.860100
     27 NAJ         12.1080     9.3350     2.9680 nv         1 C9I      -1.108200
     28 NAQ         10.4300     3.5430    -4.8520 ns         1 C9I      -0.491900
     29 OAM         10.3390     7.1600    -5.2890 os         1 C9I      -0.407100
     30 OAT         12.1580     4.9530    -5.3900 o          1 C9I      -0.565100
     31 H1          14.0490     9.6720    -0.6370 ha         1 C9I       0.157000
     32 H2           9.7850     7.2250    -0.6340 h4         1 C9I       0.016100
     33 H3          13.2610     8.6940    -2.7760 ha         1 C9I       0.154000
     34 H4           8.9910     6.4180    -2.7670 h1         1 C9I       0.075700
     35 H5          10.3800     5.3140    -2.5720 h1         1 C9I       0.075700
     36 H6           8.9670     5.5810    -5.0510 h1         1 C9I       0.088700
     37 H7          12.1990     2.4910    -4.9790 h1         1 C9I       0.079700
     38 H8           9.6990     1.0400    -3.9880 hc         1 C9I       0.055200
     39 H9          11.2930     0.3170    -4.1470 hc         1 C9I       0.055200
     40 H10         10.9180     0.9550    -1.7940 hc         1 C9I       0.035700
     41 H11         12.2150     1.9670    -2.4630 hc         1 C9I       0.035700
     42 H12         10.5800     2.6350    -2.2490 hc         1 C9I       0.035700
     43 H13         10.0400     0.2620   -10.0250 ha         1 C9I       0.115000
     44 H14          8.3480     1.6010    -8.8060 ha         1 C9I       0.118000
     45 H15          8.8350     2.4890    -6.5660 ha         1 C9I       0.113000
     46 H16         13.3670     0.9030    -5.5950 ha         1 C9I       0.110000
     47 H17         14.9760    -0.4450    -6.8490 ha         1 C9I       0.112000
     48 H18         14.4250    -1.2920    -9.1240 ha         1 C9I       0.114000
     49 H19         12.2200    -0.7750   -10.1380 ha         1 C9I       0.113000
     50 H20         14.1060    10.2990     2.9900 hn         1 C9I       0.373400
     51 H21         11.2190     8.8830     2.7620 hn         1 C9I       0.492000
     52 H22         12.0390    10.1230     3.6030 hn         1 C9I       0.492000
     53 H23          9.4660     3.5100    -4.5430 hn         1 C9I       0.317500
     54 OAO         11.6200     8.9440    -4.6480 o          1 C9I      -0.502000
@<TRIPOS>BOND
     1     1     2 ar  
     2     1     5 ar  
     3     1    31 1   
     4     2     6 1   
     5     2    24 ar  
     6     3     4 ar  
     7     3    24 ar  
     8     3    32 1   
     9     4     5 ar  
    10     4    25 1   
    11     5    33 1   
    12     6    26 2   
    13     6    27 1   
    14     7     8 1   
    15     7    25 1   
    16     7    34 1   
    17     7    35 1   
    18     8    10 1   
    19     8    29 1   
    20     8    36 1   
    21     9    25 1   
    22     9    29 1   
    23     9    54 2   
    24    10    28 1   
    25    10    30 2   
    26    11    12 1   
    27    11    13 1   
    28    11    28 1   
    29    11    37 1   
    30    12    15 ar  
    31    12    19 ar  
    32    13    14 1   
    33    13    38 1   
    34    13    39 1   
    35    14    40 1   
    36    14    41 1   
    37    14    42 1   
    38    15    16 ar  
    39    15    20 ar  
    40    16    17 ar  
    41    16    23 ar  
    42    17    18 ar  
    43    17    43 1   
    44    18    19 ar  
    45    18    44 1   
    46    19    45 1   
    47    20    21 ar  
    48    20    46 1   
    49    21    22 ar  
    50    21    47 1   
    51    22    23 ar  
    52    22    48 1   
    53    23    49 1   
    54    26    50 1   
    55    27    51 1   
    56    27    52 1   
    57    28    53 1   
@<TRIPOS>SUBSTRUCTURE
     1 C9I         1 TEMP              0 ****  ****    0 ROOT
