@<TRIPOS>MOLECULE
C9I
   54    57     1     0     0
SMALL
bcc


@<TRIPOS>ATOM
      1 CAA         12.7260     9.6460    -1.8840 ca         1 C9I      -0.162300
      2 CAB         12.7830     9.5370    -0.5000 ca         1 C9I       0.340000
      3 CAD         11.4620     7.6690    -0.5410 ca         1 C9I       0.357200
      4 CAE         11.3310     7.7020    -1.9320 ca         1 C9I      -0.011700
      5 CAF         12.0000     8.7230    -2.6110 ca         1 C9I      -0.124000
      6 CAG         13.5460    10.5230     0.3230 ce         1 C9I       0.588200
      7 CAK         10.0750     5.5500    -1.8690 c5         1 C9I       0.080000
      8 CAL          9.4770     4.7480    -3.0190 c5         1 C9I       0.044100
      9 CAN         10.0600     6.7980    -3.8280 c          1 C9I       0.853600
     10 CAP         10.4120     3.6590    -3.5470 c          1 C9I       0.651100
     11 CAR         10.4940     1.5540    -4.7930 c3         1 C9I       0.161000
     12 CAS         11.0320     2.0010    -6.1400 ca         1 C9I      -0.091300
     13 CAU          9.5600     0.3490    -4.9470 c3         1 C9I      -0.092400
     14 CAV          9.1350    -0.2610    -3.6190 c3         1 C9I      -0.090100
     15 CAW         12.1350     1.3180    -6.7340 ca         1 C9I      -0.017000
     16 CAX         12.5990     1.7350    -8.0120 ca         1 C9I      -0.037000
     17 CAY         11.9600     2.8100    -8.6730 ca         1 C9I      -0.111000
     18 CAZ         10.9030     3.4440    -8.0870 ca         1 C9I      -0.121000
     19 CBA         10.4430     3.0350    -6.8200 ca         1 C9I      -0.108000
     20 CBB         12.8010     0.2340    -6.1080 ca         1 C9I      -0.124000
     21 CBC         13.8580    -0.3920    -6.7110 ca         1 C9I      -0.122000
     22 CBD         14.3140     0.0280    -7.9760 ca         1 C9I      -0.127000
     23 CBE         13.6950     1.0700    -8.6080 ca         1 C9I      -0.113000
     24 NAC         12.1630     8.5570     0.1410 nb         1 C9I      -0.667000
     25 NAH         10.5800     6.7180    -2.5670 n          1 C9I      -0.398000
     26 NAI         14.1460    11.4790    -0.2810 n2         1 C9I      -0.860100
     27 NAJ         13.5110    10.2820     1.6490 nv         1 C9I      -0.997800
     28 NAQ          9.7890     2.6150    -4.1040 ns         1 C9I      -0.558900
     29 OAM          9.3340     5.6980    -4.0760 os         1 C9I      -0.383900
     30 OAT         11.6230     3.7900    -3.4960 o          1 C9I      -0.565100
     31 H1          13.2500    10.4440    -2.3890 ha         1 C9I       0.175000
     32 H2          10.9810     6.8970     0.0480 h4         1 C9I       0.016100
     33 H3          11.9660     8.8040    -3.6850 ha         1 C9I       0.172000
     34 H4           9.3110     5.8220    -1.1380 h1         1 C9I       0.075700
     35 H5          10.8750     5.0160    -1.3560 h1         1 C9I       0.075700
     36 H6           8.4890     4.3560    -2.7730 h1         1 C9I       0.088700
     37 H7          11.3310     1.2610    -4.1530 h1         1 C9I       0.079700
     38 H8           8.6850     0.6560    -5.5280 hc         1 C9I       0.055200
     39 H9          10.0730    -0.4040    -5.5460 hc         1 C9I       0.055200
     40 H10          8.5130    -1.1410    -3.7840 hc         1 C9I       0.035700
     41 H11         10.0030    -0.5730    -3.0350 hc         1 C9I       0.035700
     42 H12          8.5580     0.4360    -3.0100 hc         1 C9I       0.035700
     43 H13         12.3230     3.1180    -9.6460 ha         1 C9I       0.133000
     44 H14         10.4120     4.2680    -8.5890 ha         1 C9I       0.136000
     45 H15          9.6080     3.5670    -6.3810 ha         1 C9I       0.131000
     46 H16         12.4800    -0.1170    -5.1360 ha         1 C9I       0.128000
     47 H17         14.3500    -1.2170    -6.2110 ha         1 C9I       0.130000
     48 H18         15.1510    -0.4750    -8.4410 ha         1 C9I       0.132000
     49 H19         14.0370     1.4020    -9.5820 ha         1 C9I       0.131000
     50 H20         14.6290    12.0840     0.3780 hn         1 C9I       0.373400
     51 H21         12.9970     9.4950     2.0050 hn         1 C9I       0.436800
     52 H22         13.9790    10.8870     2.3000 hn         1 C9I       0.436800
     53 H23          8.7800     2.6120    -4.1410 hn         1 C9I       0.317500
     54 OAO         10.1700     7.6800    -4.6350 o          1 C9I      -0.577500
@<TRIPOS>BOND
     1     1     2 ar  
     2     1     5 ar  
     3     1    31 1   
     4     2     6 1   
     5     2    24 ar  
     6     3     4 ar  
     7     3    24 ar  
     8     3    32 1   
     9     4     5 ar  
    10     4    25 1   
    11     5    33 1   
    12     6    26 2   
    13     6    27 1   
    14     7     8 1   
    15     7    25 1   
    16     7    34 1   
    17     7    35 1   
    18     8    10 1   
    19     8    29 1   
    20     8    36 1   
    21     9    25 1   
    22     9    29 1   
    23     9    54 2   
    24    10    28 1   
    25    10    30 2   
    26    11    12 1   
    27    11    13 1   
    28    11    28 1   
    29    11    37 1   
    30    12    15 ar  
    31    12    19 ar  
    32    13    14 1   
    33    13    38 1   
    34    13    39 1   
    35    14    40 1   
    36    14    41 1   
    37    14    42 1   
    38    15    16 ar  
    39    15    20 ar  
    40    16    17 ar  
    41    16    23 ar  
    42    17    18 ar  
    43    17    43 1   
    44    18    19 ar  
    45    18    44 1   
    46    19    45 1   
    47    20    21 ar  
    48    20    46 1   
    49    21    22 ar  
    50    21    47 1   
    51    22    23 ar  
    52    22    48 1   
    53    23    49 1   
    54    26    50 1   
    55    27    51 1   
    56    27    52 1   
    57    28    53 1   
@<TRIPOS>SUBSTRUCTURE
     1 C9I         1 TEMP              0 ****  ****    0 ROOT
