@<TRIPOS>MOLECULE
C9J
   37    40     1     0     0
SMALL
No Charge or Current Charge


@<TRIPOS>ATOM
      1 C4           3.7050     2.2870     0.3890 ca         1 C9J      -0.091000
      2 C5           2.3210     2.5120     0.4400 ca         1 C9J      -0.101000
      3 C6           1.4280     1.4340     0.2600 ca         1 C9J       0.323000
      4 N1          -2.1110     1.3210     0.2800 na         1 C9J       0.217000
      5 C7          -0.0320     1.6610     0.3120 cc         1 C9J       0.136000
      6 C8          -0.9270     0.6460     0.1360 cd         1 C9J      -0.142000
      7 N2          -1.9520     2.6660     0.4840 nd         1 C9J      -0.191800
      8 C9          -3.2980     0.6170     0.0810 ca         1 C9J      -0.019200
      9 C10         -4.2110     1.0360    -0.9090 ca         1 C9J      -0.059000
     10 C11         -5.4120     0.3320    -1.1130 ca         1 C9J      -0.122000
     11 C12         -5.7110    -0.7940    -0.3300 ca         1 C9J       0.123100
     12 N3          -0.6550     2.8690     0.5240 nc         1 C9J      -0.349000
     13 C13         -4.8020    -1.2130     0.6630 ca         1 C9J       0.080000
     14 C14         -3.6020    -0.5130     0.8700 ca         1 C9J      -0.108000
     15 C15          3.2250    -0.0590    -0.0170 ca         1 C9J       0.275500
     16 N4           1.8790     0.1710     0.0350 nb         1 C9J      -0.625000
     17 N            5.1550    -1.6590    -0.3130 n          1 C9J      -0.295000
     18 C            5.6710    -3.0280    -0.5570 c3         1 C9J       0.082300
     19 O           -6.8830    -1.4690    -0.5390 oh         1 C9J      -0.518100
     20 C1           6.0480    -0.5960    -0.1350 cc         1 C9J      -0.033400
     21 C16          3.7430    -1.4780    -0.2690 c          1 C9J       0.462500
     22 C2           5.5920     0.6820     0.0920 cd         1 C9J      -0.261200
     23 C3           4.1630     0.9800     0.1570 ca         1 C9J      -0.032800
     24 F           -5.0800    -2.2950     1.4280 f          1 C9J      -0.178000
     25 O1           2.9830    -2.4330    -0.4300 o          1 C9J      -0.516000
     26 H1           4.4050     3.1080     0.5260 ha         1 C9J       0.125000
     27 H2           1.9420     3.5150     0.6190 ha         1 C9J       0.147000
     28 H3          -0.8210    -0.4130    -0.0620 h4         1 C9J       0.191000
     29 H4          -3.9880     1.9080    -1.5220 ha         1 C9J       0.148000
     30 H5          -6.1100     0.6600    -1.8800 ha         1 C9J       0.142000
     31 H6          -2.9150    -0.8460     1.6440 ha         1 C9J       0.148000
     32 H7           6.7680    -3.0360    -0.5680 h1         1 C9J       0.052700
     33 H8           5.3220    -3.7010     0.2360 h1         1 C9J       0.052700
     34 H9           5.3060    -3.3930    -1.5250 h1         1 C9J       0.052700
     35 H10         -6.9200    -2.2190     0.0950 ho         1 C9J       0.483000
     36 H11          7.0930    -0.8870    -0.1950 h4         1 C9J       0.199000
     37 H12          6.3170     1.4810     0.2260 ha         1 C9J       0.202000
@<TRIPOS>BOND
     1     1     2 ar  
     2     1    23 ar  
     3     1    26 1   
     4     2     3 ar  
     5     2    27 1   
     6     3     5 1   
     7     3    16 ar  
     8     4     6 1   
     9     4     7 1   
    10     4     8 1   
    11     5     6 2   
    12     5    12 1   
    13     6    28 1   
    14     7    12 2   
    15     8     9 ar  
    16     8    14 ar  
    17     9    10 ar  
    18     9    29 1   
    19    10    11 ar  
    20    10    30 1   
    21    11    13 ar  
    22    11    19 1   
    23    13    14 ar  
    24    13    24 1   
    25    14    31 1   
    26    15    16 ar  
    27    15    21 1   
    28    15    23 ar  
    29    17    18 1   
    30    17    20 1   
    31    17    21 1   
    32    18    32 1   
    33    18    33 1   
    34    18    34 1   
    35    19    35 1   
    36    20    22 2   
    37    20    36 1   
    38    21    25 2   
    39    22    23 1   
    40    22    37 1   
@<TRIPOS>SUBSTRUCTURE
     1 C9J         1 TEMP              0 ****  ****    0 ROOT
