@<TRIPOS>MOLECULE
C9J
   37    40     1     0     0
SMALL
abcg2


@<TRIPOS>ATOM
      1 C4           3.6850     2.2840     0.3520 ca         1 C9J      -0.091000
      2 C5           2.3240     2.4270     0.3580 ca         1 C9J      -0.101000
      3 C6           1.5210     1.2850     0.1700 ca         1 C9J       0.323000
      4 N1          -2.0400     1.0210     0.0770 na         1 C9J       0.217000
      5 C7           0.0660     1.3840     0.1620 cc         1 C9J       0.136000
      6 C8          -0.8610     0.3790     0.0290 cd         1 C9J      -0.142000
      7 N2          -1.8640     2.3310     0.2280 nd         1 C9J      -0.191800
      8 C9          -3.3410     0.4770    -0.0130 ca         1 C9J      -0.019200
      9 C10         -4.3160     1.1320    -0.7510 ca         1 C9J      -0.059000
     10 C11         -5.5890     0.5960    -0.8330 ca         1 C9J      -0.122000
     11 C12         -5.9050    -0.6000    -0.1970 ca         1 C9J       0.123100
     12 N3          -0.6030     2.5540     0.2770 nc         1 C9J      -0.349000
     13 C13         -4.8970    -1.2310     0.5290 ca         1 C9J       0.080000
     14 C14         -3.6280    -0.7120     0.6410 ca         1 C9J      -0.108000
     15 C15          3.3560    -0.0580    -0.0180 ca         1 C9J       0.275500
     16 N4           2.0310     0.0850    -0.0090 nb         1 C9J      -0.625000
     17 N            5.2270    -1.5590    -0.2340 n          1 C9J      -0.295000
     18 C            5.7660    -2.8960    -0.4390 c3         1 C9J       0.082300
     19 O           -7.1470    -1.0910    -0.3060 oh         1 C9J      -0.518100
     20 C1           6.0810    -0.5020    -0.0640 cc         1 C9J      -0.033400
     21 C16          3.8570    -1.4270    -0.2280 c          1 C9J       0.462500
     22 C2           5.6490     0.7590     0.1290 cd         1 C9J      -0.261200
     23 C3           4.2460     1.0100     0.1570 ca         1 C9J      -0.032800
     24 F           -5.1960    -2.3820     1.1530 f          1 C9J      -0.178000
     25 O1           3.1320    -2.3950    -0.3870 o          1 C9J      -0.516000
     26 H1           4.3300     3.1410     0.4960 ha         1 C9J       0.125000
     27 H2           1.8680     3.3960     0.5070 ha         1 C9J       0.147000
     28 H3          -0.7660    -0.6840    -0.1080 h4         1 C9J       0.191000
     29 H4          -4.0870     2.0540    -1.2670 ha         1 C9J       0.148000
     30 H5          -6.3520     1.1020    -1.4100 ha         1 C9J       0.142000
     31 H6          -2.8910    -1.2270     1.2430 ha         1 C9J       0.148000
     32 H7           6.8500    -2.8500    -0.3950 h1         1 C9J       0.052700
     33 H8           5.4130    -3.5750     0.3340 h1         1 C9J       0.052700
     34 H9           5.4710    -3.2870    -1.4110 h1         1 C9J       0.052700
     35 H10         -7.2510    -1.9050     0.2010 ho         1 C9J       0.483000
     36 H11          7.1330    -0.7430    -0.0960 h4         1 C9J       0.199000
     37 H12          6.3610     1.5610     0.2570 ha         1 C9J       0.202000
@<TRIPOS>BOND
     1     1     2 ar  
     2     1    23 ar  
     3     1    26 1   
     4     2     3 ar  
     5     2    27 1   
     6     3     5 1   
     7     3    16 ar  
     8     4     6 1   
     9     4     7 1   
    10     4     8 1   
    11     5     6 2   
    12     5    12 1   
    13     6    28 1   
    14     7    12 2   
    15     8     9 ar  
    16     8    14 ar  
    17     9    10 ar  
    18     9    29 1   
    19    10    11 ar  
    20    10    30 1   
    21    11    13 ar  
    22    11    19 1   
    23    13    14 ar  
    24    13    24 1   
    25    14    31 1   
    26    15    16 ar  
    27    15    21 1   
    28    15    23 ar  
    29    17    18 1   
    30    17    20 1   
    31    17    21 1   
    32    18    32 1   
    33    18    33 1   
    34    18    34 1   
    35    19    35 1   
    36    20    22 2   
    37    20    36 1   
    38    21    25 2   
    39    22    23 1   
    40    22    37 1   
@<TRIPOS>SUBSTRUCTURE
     1 C9J         1 TEMP              0 ****  ****    0 ROOT
