@<TRIPOS>MOLECULE
C9K
   22    21     1     0     0
SMALL
No Charge or Current Charge


@<TRIPOS>ATOM
      1 C1           2.0780    -0.1650     0.3710 c3         1 C9K       0.162500
      2 C2           0.8870     0.7170    -0.1230 c3         1 C9K       0.115800
      3 C3          -1.5970     0.8090    -0.4420 c3         1 C9K       0.157800
      4 N2          -0.4050    -0.0110    -0.1040 n7         1 C9K      -0.842400
      5 N            2.2010    -1.4310    -0.3930 n8         1 C9K      -1.003200
      6 C1B          3.4160     0.6010     0.3280 c3         1 C9K      -0.085100
      7 C4          -2.9180    -0.0180    -0.4590 c3         1 C9K       0.164600
      8 O           -3.2520    -0.5170     0.8490 oh         1 C9K      -0.642000
      9 H1           1.8860    -0.4270     1.4230 h1         1 C9K       0.073700
     10 H22          0.8260     1.6030     0.5250 h1         1 C9K       0.031700
     11 H21          1.1020     1.0740    -1.1400 h1         1 C9K       0.031700
     12 H31         -1.7090     1.6360     0.2730 h1         1 C9K       0.037200
     13 H32         -1.4690     1.2590    -1.4360 h1         1 C9K       0.037200
     14 H2          -0.3510    -0.7820    -0.7780 hn         1 C9K       0.394000
     15 H4           1.3500    -1.9820    -0.2390 hn         1 C9K       0.394000
     16 H5           2.1740    -1.2160    -1.3960 hn         1 C9K       0.394000
     17 HB3          3.3580     1.5070     0.9440 hc         1 C9K       0.037367
     18 HB2          4.2320    -0.0190     0.7170 hc         1 C9K       0.037367
     19 HB1          3.6660     0.9000    -0.6970 hc         1 C9K       0.037367
     20 H41         -3.7270     0.6260    -0.8270 h1         1 C9K       0.014700
     21 H42         -2.8120    -0.8500    -1.1680 h1         1 C9K       0.014700
     22 H           -4.0560    -1.0710     0.7440 ho         1 C9K       0.437000
@<TRIPOS>BOND
     1     1     2 1   
     2     1     5 1   
     3     1     6 1   
     4     1     9 1   
     5     2     4 1   
     6     2    10 1   
     7     2    11 1   
     8     3     4 1   
     9     3     7 1   
    10     3    12 1   
    11     3    13 1   
    12     4    14 1   
    13     5    15 1   
    14     5    16 1   
    15     6    17 1   
    16     6    18 1   
    17     6    19 1   
    18     7     8 1   
    19     7    20 1   
    20     7    21 1   
    21     8    22 1   
@<TRIPOS>SUBSTRUCTURE
     1 C9K         1 TEMP              0 ****  ****    0 ROOT
