@<TRIPOS>MOLECULE
C9K
   22    21     1     0     0
SMALL
abcg2


@<TRIPOS>ATOM
      1 C1           2.0180    -0.1910     0.3530 c3         1 C9K       0.162500
      2 C2           0.8440     0.6700    -0.1180 c3         1 C9K       0.115800
      3 C3          -1.5460     0.7800    -0.4350 c3         1 C9K       0.157800
      4 N2          -0.4120    -0.0510    -0.0840 n7         1 C9K      -0.842400
      5 N            2.2080    -1.4260    -0.3990 n8         1 C9K      -1.003200
      6 C1B          3.3040     0.6230     0.3180 c3         1 C9K      -0.085100
      7 C4          -2.8440     0.0030    -0.4560 c3         1 C9K       0.164600
      8 O           -3.1420    -0.4730     0.8370 oh         1 C9K      -0.642000
      9 H1           1.8180    -0.4800     1.3910 h1         1 C9K       0.073700
     10 H22          0.7590     1.5360     0.5460 h1         1 C9K       0.031700
     11 H21          1.0770     1.0720    -1.1210 h1         1 C9K       0.031700
     12 H31         -1.6230     1.5960     0.2900 h1         1 C9K       0.037200
     13 H32         -1.4370     1.2580    -1.4230 h1         1 C9K       0.037200
     14 H2          -0.3650    -0.8150    -0.7490 hn         1 C9K       0.394000
     15 H4           1.4100    -2.0380    -0.2840 hn         1 C9K       0.394000
     16 H5           2.2700    -1.2190    -1.3900 hn         1 C9K       0.394000
     17 HB3          3.2100     1.5380     0.9030 hc         1 C9K       0.037367
     18 HB2          4.1400     0.0500     0.7190 hc         1 C9K       0.037367
     19 HB1          3.5570     0.9100    -0.7060 hc         1 C9K       0.037367
     20 H41         -3.6310     0.6690    -0.8340 h1         1 C9K       0.014700
     21 H42         -2.7590    -0.8210    -1.1790 h1         1 C9K       0.014700
     22 H           -3.9770    -0.9460     0.7940 ho         1 C9K       0.437000
@<TRIPOS>BOND
     1     1     2 1   
     2     1     5 1   
     3     1     6 1   
     4     1     9 1   
     5     2     4 1   
     6     2    10 1   
     7     2    11 1   
     8     3     4 1   
     9     3     7 1   
    10     3    12 1   
    11     3    13 1   
    12     4    14 1   
    13     5    15 1   
    14     5    16 1   
    15     6    17 1   
    16     6    18 1   
    17     6    19 1   
    18     7     8 1   
    19     7    20 1   
    20     7    21 1   
    21     8    22 1   
@<TRIPOS>SUBSTRUCTURE
     1 C9K         1 TEMP              0 ****  ****    0 ROOT
