@<TRIPOS>MOLECULE
C9L
   38    39     1     0     0
SMALL
bcc


@<TRIPOS>ATOM
      1 C11         25.8430     7.5130   -18.6960 c3         1 C9L       0.215100
      2 C13         30.9690     9.1700   -14.5550 c6         1 C9L       0.209800
      3 C15         33.1110     8.7360   -15.8240 c6         1 C9L      -0.074400
      4 C16         32.2700     8.5010   -17.0730 c6         1 C9L      -0.083400
      5 C17         30.9530     9.2490   -16.9660 c6         1 C9L       0.209800
      6 C01         29.0120     7.4320   -18.9880 c3         1 C9L      -0.090100
      7 C03         28.0650     8.2510   -16.6730 ca         1 C9L      -0.436900
      8 C04         28.8520     8.9670   -15.7480 ca         1 C9L       0.740200
      9 N05         28.3320     9.7130   -14.7740 nb         1 C9L      -0.857000
     10 C06         27.0070     9.7700   -14.7040 ca         1 C9L       0.943900
     11 N07         26.4780    10.5330   -13.7090 nv         1 C9L      -0.940500
     12 N08         26.1590     9.2060   -15.5480 nb         1 C9L      -0.870000
     13 C09         26.6790     8.4490   -16.5240 ca         1 C9L       0.741200
     14 N10         25.7310     7.8450   -17.2930 nu         1 C9L      -0.863900
     15 N12         30.2290     8.8580   -15.7650 nh         1 C9L      -0.772300
     16 C14         32.3030     8.4310   -14.5680 c6         1 C9L      -0.083400
     17 H1          26.2990     6.5390   -18.8700 h1         1 C9L       0.036700
     18 H2          24.8370     7.4750   -19.1080 h1         1 C9L       0.036700
     19 H3          26.4020     8.2610   -19.2580 h1         1 C9L       0.036700
     20 H4          31.1440    10.2520   -14.4590 h1         1 C9L       0.044950
     21 H5          30.3870     8.8660   -13.6870 h1         1 C9L       0.044950
     22 H6          34.0170     8.1260   -15.8490 hc         1 C9L       0.038700
     23 H7          33.4380     9.7810   -15.8020 hc         1 C9L       0.038700
     24 H8          32.0690     7.4330   -17.1990 hc         1 C9L       0.045950
     25 H9          32.8030     8.8350   -17.9660 hc         1 C9L       0.045950
     26 H10         31.1550    10.3310   -16.9310 h1         1 C9L       0.044950
     27 H11         30.3370     9.0850   -17.8440 h1         1 C9L       0.044950
     28 H12         30.0800     7.3060   -19.1670 hc         1 C9L       0.029033
     29 H13         28.5000     6.7550   -19.6710 hc         1 C9L       0.029033
     30 H14         28.7490     8.4460   -19.2870 hc         1 C9L       0.029033
     31 H15         27.9570     6.2980   -17.4800 hc         1 C9L       0.046700
     32 H16         29.5420     6.7920   -16.9960 hc         1 C9L       0.046700
     33 H17         25.5100    10.3840   -13.4820 hn         1 C9L       0.425300
     34 H18         27.0760    10.7440   -12.9290 hn         1 C9L       0.425300
     35 H19         24.8030     8.1070   -17.0020 hn         1 C9L       0.426800
     36 H20         32.1100     7.3560   -14.5050 hc         1 C9L       0.045950
     37 H21         32.8670     8.7060   -13.6730 hc         1 C9L       0.045950
     38 C02         28.6480     7.1420   -17.5150 c3         1 C9L       0.000900
@<TRIPOS>BOND
     1     1    14 1   
     2     1    17 1   
     3     1    18 1   
     4     1    19 1   
     5     2    15 1   
     6     2    16 1   
     7     2    20 1   
     8     2    21 1   
     9     3     4 1   
    10     3    16 1   
    11     3    22 1   
    12     3    23 1   
    13     4     5 1   
    14     4    24 1   
    15     4    25 1   
    16     5    15 1   
    17     5    26 1   
    18     5    27 1   
    19     6    28 1   
    20     6    29 1   
    21     6    30 1   
    22     6    38 1   
    23     7     8 ar  
    24     7    13 ar  
    25     7    38 1   
    26     8     9 ar  
    27     8    15 1   
    28     9    10 ar  
    29    10    11 1   
    30    10    12 ar  
    31    11    33 1   
    32    11    34 1   
    33    12    13 ar  
    34    13    14 1   
    35    14    35 1   
    36    16    36 1   
    37    16    37 1   
    38    31    38 1   
    39    32    38 1   
@<TRIPOS>SUBSTRUCTURE
     1 C9L         1 TEMP              0 ****  ****    0 ROOT
