@<TRIPOS>MOLECULE
C9L
   38    39     1     0     0
SMALL
No Charge or Current Charge


@<TRIPOS>ATOM
      1 C11         25.4760     7.2160   -18.3660 c3         1 C9L       0.215100
      2 C13         30.8880     8.1590   -14.8220 c6         1 C9L       0.209800
      3 C15         33.1960     8.6930   -15.7760 c6         1 C9L      -0.074400
      4 C16         32.4990     9.5120   -16.8890 c6         1 C9L      -0.083400
      5 C17         31.1260    10.0500   -16.4150 c6         1 C9L       0.209800
      6 C01         29.1270     7.0990   -18.5840 c3         1 C9L      -0.090100
      7 C03         28.0120     8.1300   -16.5220 ca         1 C9L      -0.306300
      8 C04         28.8680     9.0910   -15.9380 ca         1 C9L       0.411900
      9 N05         28.3970    10.2010   -15.3450 nb         1 C9L      -0.331000
     10 C06         27.0740    10.3360   -15.3300 ca         1 C9L       0.417900
     11 N07         26.5960    11.4420   -14.7200 nv         1 C9L      -1.050900
     12 N08         26.1600     9.5100   -15.8360 nb         1 C9L      -0.344000
     13 C09         26.6310     8.4190   -16.4500 ca         1 C9L       0.412900
     14 N10         25.6200     7.6130   -16.9540 nu         1 C9L      -0.919100
     15 N12         30.2660     8.9400   -15.9230 nh         1 C9L      -0.772300
     16 C14         32.2540     7.5780   -15.2640 c6         1 C9L      -0.083400
     17 H1          26.2900     6.5570   -18.6890 h1         1 C9L       0.036700
     18 H2          24.5310     6.6770   -18.5130 h1         1 C9L       0.036700
     19 H3          25.4700     8.1040   -19.0140 h1         1 C9L       0.036700
     20 H4          31.0340     8.8020   -13.9410 h1         1 C9L       0.044950
     21 H5          30.2300     7.3320   -14.5160 h1         1 C9L       0.044950
     22 H6          34.1300     8.2560   -16.1560 hc         1 C9L       0.038700
     23 H7          33.4720     9.3570   -14.9450 hc         1 C9L       0.038700
     24 H8          32.3570     8.8820   -17.7780 hc         1 C9L       0.045950
     25 H9          33.1400    10.3490   -17.1980 hc         1 C9L       0.045950
     26 H10         31.2800    10.7920   -15.6170 h1         1 C9L       0.044950
     27 H11         30.6380    10.5650   -17.2560 h1         1 C9L       0.044950
     28 H12         29.9710     7.7980   -18.5570 hc         1 C9L       0.029033
     29 H13         29.4780     6.1580   -19.0240 hc         1 C9L       0.029033
     30 H14         28.3560     7.5200   -19.2390 hc         1 C9L       0.029033
     31 H15         27.8210     6.0600   -17.1980 hc         1 C9L       0.046700
     32 H16         29.3810     6.4390   -16.5500 hc         1 C9L       0.046700
     33 H17         25.6080    11.4700   -14.4860 hn         1 C9L       0.480500
     34 H18         27.2260    11.9760   -14.1280 hn         1 C9L       0.480500
     35 H19         24.7300     7.8260   -16.5020 hn         1 C9L       0.482000
     36 H20         32.0950     6.8340   -16.0570 hc         1 C9L       0.045950
     37 H21         32.7210     7.0460   -14.4240 hc         1 C9L       0.045950
     38 C02         28.5750     6.8540   -17.1650 c3         1 C9L       0.000900
@<TRIPOS>BOND
     1     1    14 1   
     2     1    17 1   
     3     1    18 1   
     4     1    19 1   
     5     2    15 1   
     6     2    16 1   
     7     2    20 1   
     8     2    21 1   
     9     3     4 1   
    10     3    16 1   
    11     3    22 1   
    12     3    23 1   
    13     4     5 1   
    14     4    24 1   
    15     4    25 1   
    16     5    15 1   
    17     5    26 1   
    18     5    27 1   
    19     6    28 1   
    20     6    29 1   
    21     6    30 1   
    22     6    38 1   
    23     7     8 ar  
    24     7    13 ar  
    25     7    38 1   
    26     8     9 ar  
    27     8    15 1   
    28     9    10 ar  
    29    10    11 1   
    30    10    12 ar  
    31    11    33 1   
    32    11    34 1   
    33    12    13 ar  
    34    13    14 1   
    35    14    35 1   
    36    16    36 1   
    37    16    37 1   
    38    31    38 1   
    39    32    38 1   
@<TRIPOS>SUBSTRUCTURE
     1 C9L         1 TEMP              0 ****  ****    0 ROOT
