@<TRIPOS>MOLECULE
C9M
   28    28     1     0     0
SMALL
abcg2


@<TRIPOS>ATOM
      1 C2           2.6310    -1.1110    -0.0870 ca         1 C9M       0.126100
      2 O12          3.8820    -1.5990    -0.1870 oh         1 C9M      -0.533100
      3 C3           1.5680    -1.9890     0.0500 ca         1 C9M      -0.127000
      4 C4           0.2680    -1.5190     0.1590 ca         1 C9M      -0.089000
      5 C5          -0.0010    -0.1530     0.1310 ca         1 C9M      -0.057800
      6 C7          -1.3500     0.4070     0.2340 ce         1 C9M      -0.145200
      7 C8          -2.4990    -0.2670     0.3120 c2         1 C9M      -0.209200
      8 C9          -3.8230     0.4000     0.4700 c3         1 C9M       0.191800
      9 O10         -4.6830    -0.0260    -0.5630 os         1 C9M      -0.449000
     10 C11         -5.9840     0.4850    -0.4240 c3         1 C9M       0.145900
     11 C6           1.0770     0.7320    -0.0050 ca         1 C9M      -0.142000
     12 C1           2.3770     0.2700    -0.1130 ca         1 C9M       0.043100
     13 O13          3.4760     1.0440    -0.2460 os         1 C9M      -0.368100
     14 C14          3.3190     2.4490    -0.2510 c3         1 C9M       0.157900
     15 H1           4.5160    -0.8770    -0.2750 ho         1 C9M       0.482000
     16 H2           1.7650    -3.0540     0.0740 ha         1 C9M       0.131000
     17 H3          -0.5340    -2.2370     0.2690 ha         1 C9M       0.119000
     18 H4          -1.3960     1.4930     0.2450 ha         1 C9M       0.166000
     19 H5          -2.5120    -1.3530     0.2970 ha         1 C9M       0.182000
     20 H6          -4.2530     0.1370     1.4490 h1         1 C9M       0.025700
     21 H7          -3.7040     1.4930     0.4620 h1         1 C9M       0.025700
     22 H8          -6.4530     0.1680     0.5160 h1         1 C9M       0.028033
     23 H9          -6.0040     1.5810    -0.4550 h1         1 C9M       0.028033
     24 H10         -6.5840     0.1080    -1.2510 h1         1 C9M       0.028033
     25 H11          0.8770     1.7970    -0.0250 ha         1 C9M       0.115000
     26 H12          4.3170     2.8710    -0.3430 h1         1 C9M       0.041700
     27 H13          2.7140     2.7870    -1.0960 h1         1 C9M       0.041700
     28 H14          2.8660     2.8080     0.6760 h1         1 C9M       0.041700
@<TRIPOS>BOND
     1     1     2 1   
     2     1     3 ar  
     3     1    12 ar  
     4     2    15 1   
     5     3     4 ar  
     6     3    16 1   
     7     4     5 ar  
     8     4    17 1   
     9     5     6 1   
    10     5    11 ar  
    11     6     7 2   
    12     6    18 1   
    13     7     8 1   
    14     7    19 1   
    15     8     9 1   
    16     8    20 1   
    17     8    21 1   
    18     9    10 1   
    19    10    22 1   
    20    10    23 1   
    21    10    24 1   
    22    11    12 ar  
    23    11    25 1   
    24    12    13 1   
    25    13    14 1   
    26    14    26 1   
    27    14    27 1   
    28    14    28 1   
@<TRIPOS>SUBSTRUCTURE
     1 C9M         1 TEMP              0 ****  ****    0 ROOT
