@<TRIPOS>MOLECULE
C9M
   28    28     1     0     0
SMALL
No Charge or Current Charge


@<TRIPOS>ATOM
      1 C2           2.6580    -1.1180    -0.0120 ca         1 C9M       0.126100
      2 O12          3.9440    -1.5480    -0.1670 oh         1 C9M      -0.533100
      3 C3           1.6430    -2.0380     0.2860 ca         1 C9M      -0.127000
      4 C4           0.3180    -1.5980     0.4460 ca         1 C9M      -0.089000
      5 C5          -0.0020    -0.2300     0.3070 ca         1 C9M      -0.057800
      6 C7          -1.3970     0.2760     0.4740 ce         1 C9M      -0.145200
      7 C8          -2.5230    -0.4750     0.4920 c2         1 C9M      -0.209200
      8 C9          -3.9270     0.0580     0.6550 c3         1 C9M       0.191800
      9 O10         -4.4130     0.3990    -0.6510 os         1 C9M      -0.449000
     10 C11         -5.7480     0.9310    -0.6670 c3         1 C9M       0.145900
     11 C6           1.0250     0.6910     0.0130 ca         1 C9M      -0.142000
     12 C1           2.3590     0.2520    -0.1500 ca         1 C9M       0.043100
     13 O13          3.3980     1.1210    -0.4420 os         1 C9M      -0.368100
     14 C14          3.1940     2.5380    -0.6020 c3         1 C9M       0.157900
     15 H1           4.4810    -0.7490    -0.3660 ho         1 C9M       0.482000
     16 H2           1.8820    -3.0930     0.3950 ha         1 C9M       0.131000
     17 H3          -0.4480    -2.3280     0.6880 ha         1 C9M       0.119000
     18 H4          -1.4800     1.3600     0.5730 ha         1 C9M       0.166000
     19 H5          -2.4900    -1.5560     0.3740 ha         1 C9M       0.182000
     20 H6          -4.5630    -0.7080     1.1190 h1         1 C9M       0.025700
     21 H7          -3.9190     0.9400     1.3100 h1         1 C9M       0.025700
     22 H8          -6.4630     0.2050    -0.2580 h1         1 C9M       0.028033
     23 H9          -5.8090     1.8520    -0.0730 h1         1 C9M       0.028033
     24 H10         -6.0520     1.1670    -1.6950 h1         1 C9M       0.028033
     25 H11          0.7700     1.7410    -0.0890 ha         1 C9M       0.115000
     26 H12          4.1450     3.0350    -0.8280 h1         1 C9M       0.041700
     27 H13          2.4990     2.7410    -1.4270 h1         1 C9M       0.041700
     28 H14          2.7900     2.9800     0.3180 h1         1 C9M       0.041700
@<TRIPOS>BOND
     1     1     2 1   
     2     1     3 ar  
     3     1    12 ar  
     4     2    15 1   
     5     3     4 ar  
     6     3    16 1   
     7     4     5 ar  
     8     4    17 1   
     9     5     6 1   
    10     5    11 ar  
    11     6     7 2   
    12     6    18 1   
    13     7     8 1   
    14     7    19 1   
    15     8     9 1   
    16     8    20 1   
    17     8    21 1   
    18     9    10 1   
    19    10    22 1   
    20    10    23 1   
    21    10    24 1   
    22    11    12 ar  
    23    11    25 1   
    24    12    13 1   
    25    13    14 1   
    26    14    26 1   
    27    14    27 1   
    28    14    28 1   
@<TRIPOS>SUBSTRUCTURE
     1 C9M         1 TEMP              0 ****  ****    0 ROOT
