@<TRIPOS>MOLECULE
C9N
   25    24     1     0     0
SMALL
No Charge or Current Charge


@<TRIPOS>ATOM
      1 C1           2.0820     0.0270     0.0600 c3         1 C9N       0.158500
      2 C2           0.6940     0.1890    -0.6450 c3         1 C9N       0.173800
      3 C3          -1.7520     0.6470    -0.4270 c3         1 C9N       0.168800
      4 C4          -2.2850    -0.7680    -0.8150 c3         1 C9N       0.164600
      5 N2          -0.4070     0.7130     0.2210 n3         1 C9N      -0.686600
      6 N            1.9540    -0.7270     1.3250 n8         1 C9N      -0.972200
      7 C1B          3.1270    -0.6480    -0.8480 c3         1 C9N      -0.134100
      8 CN          -0.1310     2.0720     0.7480 c3         1 C9N       0.156100
      9 O           -2.4090    -1.6260     0.3330 oh         1 C9N      -0.638000
     10 H1           2.4500     1.0330     0.3080 h1         1 C9N       0.057700
     11 H2           0.8210     0.8430    -1.5180 h1         1 C9N       0.024200
     12 H3           0.4180    -0.8010    -1.0300 h1         1 C9N       0.024200
     13 H31         -1.7450     1.2610    -1.3380 h1         1 C9N       0.034200
     14 H32         -2.4990     1.0970     0.2420 h1         1 C9N       0.034200
     15 H5           1.0710    -0.4160     1.7500 hn         1 C9N       0.390500
     16 H6           1.7560    -1.7060     1.0970 hn         1 C9N       0.390500
     17 HB3          3.2660    -0.0670    -1.7670 hc         1 C9N       0.035700
     18 HB2          4.0980    -0.7150    -0.3410 hc         1 C9N       0.035700
     19 HB1          2.8110    -1.6610    -1.1290 hc         1 C9N       0.035700
     20 HN2         -0.0200     2.7940    -0.0720 h1         1 C9N       0.030367
     21 HN1         -0.9530     2.4110     1.3920 h1         1 C9N       0.030367
     22 HN3          0.7850     2.0890     1.3510 h1         1 C9N       0.030367
     23 H           -2.7170    -2.4980     0.0030 ho         1 C9N       0.432000
     24 H42         -3.2670    -0.6460    -1.2910 h1         1 C9N       0.011700
     25 H4          -1.6220    -1.2230    -1.5610 h1         1 C9N       0.011700
@<TRIPOS>BOND
     1     1     2 1   
     2     1     6 1   
     3     1     7 1   
     4     1    10 1   
     5     2     5 1   
     6     2    11 1   
     7     2    12 1   
     8     3     4 1   
     9     3     5 1   
    10     3    13 1   
    11     3    14 1   
    12     4     9 1   
    13     4    24 1   
    14     4    25 1   
    15     5     8 1   
    16     6    15 1   
    17     6    16 1   
    18     7    17 1   
    19     7    18 1   
    20     7    19 1   
    21     8    20 1   
    22     8    21 1   
    23     8    22 1   
    24     9    23 1   
@<TRIPOS>SUBSTRUCTURE
     1 C9N         1 TEMP              0 ****  ****    0 ROOT
