@<TRIPOS>MOLECULE
C9N
   25    24     1     0     0
SMALL
bcc


@<TRIPOS>ATOM
      1 C1           1.9730    -0.0040     0.0880 c3         1 C9N       0.158500
      2 C2           0.6300     0.1680    -0.6170 c3         1 C9N       0.173800
      3 C3          -1.7110     0.7130    -0.4830 c3         1 C9N       0.168800
      4 C4          -2.2810    -0.6520    -0.8130 c3         1 C9N       0.141400
      5 N2          -0.4350     0.6960     0.2090 n3         1 C9N      -0.686600
      6 N            1.7940    -0.7060     1.3510 n8         1 C9N      -0.861800
      7 C1B          2.9490    -0.6910    -0.8670 c3         1 C9N      -0.134100
      8 CN          -0.1200     2.0070     0.7300 c3         1 C9N       0.156100
      9 O           -2.4480    -1.3960     0.3720 oh         1 C9N      -0.575800
     10 H1           2.3850     0.9840     0.3220 h1         1 C9N       0.057700
     11 H2           0.7940     0.7910    -1.5160 h1         1 C9N       0.024200
     12 H3           0.3280    -0.8170    -0.9850 h1         1 C9N       0.024200
     13 H31         -1.6680     1.2880    -1.4260 h1         1 C9N       0.034200
     14 H32         -2.4300     1.2350     0.1560 h1         1 C9N       0.034200
     15 H5           1.3290    -1.5910     1.1780 hn         1 C9N       0.335300
     16 H6           2.7020    -0.9430     1.7330 hn         1 C9N       0.335300
     17 HB3          3.0910    -0.1180    -1.7850 hc         1 C9N       0.035700
     18 HB2          3.9270    -0.8110    -0.3970 hc         1 C9N       0.035700
     19 HB1          2.5870    -1.6840    -1.1430 hc         1 C9N       0.035700
     20 HN2          0.0740     2.7560    -0.0550 h1         1 C9N       0.030367
     21 HN1         -0.9530     2.3730     1.3330 h1         1 C9N       0.030367
     22 HN3          0.7540     1.9640     1.3780 h1         1 C9N       0.030367
     23 H           -2.8680    -2.2290     0.1400 ho         1 C9N       0.393000
     24 H42         -3.2370    -0.4820    -1.3250 h1         1 C9N       0.011700
     25 H4          -1.6410    -1.1790    -1.5320 h1         1 C9N       0.011700
@<TRIPOS>BOND
     1     1     2 1   
     2     1     6 1   
     3     1     7 1   
     4     1    10 1   
     5     2     5 1   
     6     2    11 1   
     7     2    12 1   
     8     3     4 1   
     9     3     5 1   
    10     3    13 1   
    11     3    14 1   
    12     4     9 1   
    13     4    24 1   
    14     4    25 1   
    15     5     8 1   
    16     6    15 1   
    17     6    16 1   
    18     7    17 1   
    19     7    18 1   
    20     7    19 1   
    21     8    20 1   
    22     8    21 1   
    23     8    22 1   
    24     9    23 1   
@<TRIPOS>SUBSTRUCTURE
     1 C9N         1 TEMP              0 ****  ****    0 ROOT
