@<TRIPOS>MOLECULE
C9O
   49    53     1     0     0
SMALL
abcg2


@<TRIPOS>ATOM
      1 C10         -0.3040    -3.8800     0.0890 ca         1 C9O       0.223000
      2 C15          2.8990    -0.9200    -0.1340 cc         1 C9O       0.281500
      3 C17          4.9600     0.4240    -0.4010 ca         1 C9O       0.060000
      4 C22          7.1620     1.8330    -0.1710 cc         1 C9O       0.594200
      5 C24          8.6550     2.8800    -1.6400 c3         1 C9O       0.151900
      6 C26          4.2470    -0.1750     1.8210 ca         1 C9O       0.400900
      7 C02         -2.4490     2.0680     0.5320 ca         1 C9O      -0.037900
      8 C03         -3.3700     1.2250    -0.0660 ca         1 C9O       0.012000
      9 C04         -3.5630    -0.0310     0.4950 ca         1 C9O      -0.310500
     10 N06         -3.6930    -1.9560    -1.4340 nu         1 C9O      -0.864100
     11 C07         -2.5470    -2.6160    -0.9420 ca         1 C9O       0.178000
     12 C08         -2.6390    -3.8830    -0.3780 ca         1 C9O      -0.014000
     13 C09         -1.5260    -4.5170     0.1500 ca         1 C9O      -0.161000
     14 F11          0.7830    -4.4660     0.5770 f          1 C9O      -0.147000
     15 C12         -0.1710    -2.6190    -0.4750 ca         1 C9O      -0.097200
     16 N13          1.0750    -1.9710    -0.5320 na         1 C9O       0.212000
     17 C14          1.8000    -1.4610     0.4840 cd         1 C9O      -0.183000
     18 C16          4.0470    -0.2150     0.4230 ca         1 C9O      -0.226500
     19 C18          6.0210     1.0720     0.2150 ca         1 C9O      -0.288900
     20 C19          6.1040     1.0410     1.6180 ca         1 C9O       0.403500
     21 N20          7.2050     1.7340     1.9540 na         1 C9O      -0.164100
     22 N21          7.8490     2.2150     0.8680 nd         1 C9O      -0.599100
     23 N25          5.2440     0.4340     2.4290 nb         1 C9O      -0.690000
     24 N27          2.7640    -1.1370    -1.4670 nc         1 C9O      -0.351000
     25 N28          1.6750    -1.7630    -1.7010 nd         1 C9O      -0.162800
     26 C29         -1.3040    -1.9990    -0.9720 ca         1 C9O       0.204000
     27 F30         -1.1890    -0.7810    -1.4840 f          1 C9O      -0.144000
     28 O31         -5.0740    -2.1530     0.6510 o          1 C9O      -0.520500
     29 O32         -5.6260    -0.4260    -1.1030 o          1 C9O      -0.520500
     30 C33         -2.8690    -0.4500     1.6210 ca         1 C9O      -0.007000
     31 C34         -1.9480     0.4140     2.1920 ca         1 C9O      -0.133000
     32 C35         -1.7310     1.6730     1.6530 ca         1 C9O      -0.026000
     33 H1           4.8440     0.4190    -1.4770 ha         1 C9O       0.153000
     34 H2           8.5780     3.8640    -1.1740 h1         1 C9O       0.049367
     35 H3           9.5380     2.3720    -1.2500 h1         1 C9O       0.049367
     36 H4           8.7520     2.9970    -2.7160 h1         1 C9O       0.049367
     37 H5           3.5420    -0.6810     2.4710 h4         1 C9O       0.015100
     38 H6          -3.9210     1.5320    -0.9450 ha         1 C9O       0.152000
     39 H7          -3.5630    -1.4140    -2.2830 hn         1 C9O       0.505000
     40 H8          -3.5980    -4.3800    -0.3540 ha         1 C9O       0.158000
     41 H9          -1.6050    -5.5010     0.5900 ha         1 C9O       0.154000
     42 H10          1.4780    -1.5100     1.5100 h4         1 C9O       0.172000
     43 H11          7.5770     1.9030     2.8740 hn         1 C9O       0.390000
     44 H12         -3.0390    -1.4260     2.0540 ha         1 C9O       0.140000
     45 H13         -1.3950     0.1070     3.0690 ha         1 C9O       0.124000
     46 H14         -1.0090     2.3360     2.1110 ha         1 C9O       0.137000
     47 O23          7.4770     2.1120    -1.4280 os         1 C9O      -0.397600
     48 S05         -4.6550    -1.1640    -0.3210 sy         1 C9O       1.147600
     49 BR1         -2.1660     3.7830    -0.1940 br         1 C9O      -0.072100
@<TRIPOS>BOND
     1     1    13 ar  
     2     1    14 1   
     3     1    15 ar  
     4     2    17 2   
     5     2    18 1   
     6     2    24 1   
     7     3    18 ar  
     8     3    19 ar  
     9     3    33 1   
    10     4    19 1   
    11     4    22 2   
    12     4    47 1   
    13     5    34 1   
    14     5    35 1   
    15     5    36 1   
    16     5    47 1   
    17     6    18 ar  
    18     6    23 ar  
    19     6    37 1   
    20     7     8 ar  
    21     7    32 ar  
    22     7    49 1   
    23     8     9 ar  
    24     8    38 1   
    25     9    30 ar  
    26     9    48 1   
    27    10    11 1   
    28    10    39 1   
    29    10    48 1   
    30    11    12 ar  
    31    11    26 ar  
    32    12    13 ar  
    33    12    40 1   
    34    13    41 1   
    35    15    16 1   
    36    15    26 ar  
    37    16    17 1   
    38    16    25 1   
    39    17    42 1   
    40    19    20 ar  
    41    20    21 1   
    42    20    23 ar  
    43    21    22 1   
    44    21    43 1   
    45    24    25 2   
    46    26    27 1   
    47    28    48 2   
    48    29    48 2   
    49    30    31 ar  
    50    30    44 1   
    51    31    32 ar  
    52    31    45 1   
    53    32    46 1   
@<TRIPOS>SUBSTRUCTURE
     1 C9O         1 TEMP              0 ****  ****    0 ROOT
