@<TRIPOS>MOLECULE
C9O
   49    53     1     0     0
SMALL
No Charge or Current Charge


@<TRIPOS>ATOM
      1 C10         -0.3920    -4.0230    -0.0400 ca         1 C9O       0.223000
      2 C15          2.8120    -1.0420    -0.4200 cc         1 C9O       0.281500
      3 C17          4.8950     0.3320    -0.4440 ca         1 C9O       0.060000
      4 C22          6.8740     1.9560    -0.1290 cc         1 C9O       0.594200
      5 C24          8.9300     2.1410    -1.4230 c3         1 C9O       0.151900
      6 C26          3.2260     0.7850     1.2580 ca         1 C9O       0.400900
      7 C02         -1.2620     1.3610     1.1780 ca         1 C9O      -0.037900
      8 C03         -2.3000     0.9590     0.3190 ca         1 C9O       0.012000
      9 C04         -3.1820    -0.0690     0.7140 ca         1 C9O      -0.310500
     10 N06         -3.5400    -1.6180    -1.4930 nu         1 C9O      -0.864100
     11 C07         -2.4920    -2.4500    -1.0780 ca         1 C9O       0.178000
     12 C08         -2.7720    -3.6540    -0.4060 ca         1 C9O      -0.014000
     13 C09         -1.7240    -4.4460     0.0990 ca         1 C9O      -0.161000
     14 F11          0.5980    -4.7780     0.4870 f          1 C9O      -0.147000
     15 C12         -0.0940    -2.8180    -0.7000 ca         1 C9O      -0.097200
     16 N13          1.2160    -2.3590    -0.7760 na         1 C9O       0.212000
     17 C14          1.5630    -1.3180     0.0450 cd         1 C9O      -0.183000
     18 C16          3.6430     0.0290     0.1320 ca         1 C9O      -0.226500
     19 C18          5.6080     1.3700     0.1580 ca         1 C9O      -0.288900
     20 C19          5.1440     2.0570     1.2370 ca         1 C9O       0.403500
     21 N20          6.1200     2.9950     1.5400 na         1 C9O      -0.164100
     22 N21          7.2380     2.9510     0.6810 nd         1 C9O      -0.599100
     23 N25          3.9590     1.7880     1.8090 nb         1 C9O      -0.690000
     24 N27          3.1700    -1.8540    -1.4650 nc         1 C9O      -0.351000
     25 N28          2.1630    -2.6620    -1.7120 nd         1 C9O      -0.162800
     26 C29         -1.1440    -2.0490    -1.2380 ca         1 C9O       0.204000
     27 F30         -0.8660    -0.8810    -1.8700 f          1 C9O      -0.144000
     28 O31         -5.3400    -1.6070     0.2240 o          1 C9O      -0.520500
     29 O32         -4.8860     0.4210    -1.2940 o          1 C9O      -0.520500
     30 C33         -3.0220    -0.6830     1.9740 ca         1 C9O      -0.007000
     31 C34         -1.9910    -0.2650     2.8330 ca         1 C9O      -0.133000
     32 C35         -1.1090     0.7550     2.4360 ca         1 C9O      -0.026000
     33 H1           5.2890    -0.2020    -1.3080 ha         1 C9O       0.153000
     34 H2           8.8090     3.2090    -1.6440 h1         1 C9O       0.049367
     35 H3           9.5980     2.0370    -0.5580 h1         1 C9O       0.049367
     36 H4           9.4160     1.6680    -2.2860 h1         1 C9O       0.049367
     37 H5           2.2740     0.5900     1.7470 h4         1 C9O       0.015100
     38 H6          -2.3970     1.4300    -0.6590 ha         1 C9O       0.152000
     39 H7          -3.2890    -0.9400    -2.2030 hn         1 C9O       0.505000
     40 H8          -3.8040    -3.9680    -0.2710 ha         1 C9O       0.158000
     41 H9          -1.9430    -5.3750     0.6180 ha         1 C9O       0.154000
     42 H10          0.9340    -0.8970     0.8160 h4         1 C9O       0.172000
     43 H11          6.0540     3.6600     2.3060 hn         1 C9O       0.390000
     44 H12         -3.6830    -1.4900     2.2880 ha         1 C9O       0.140000
     45 H13         -1.8690    -0.7390     3.8040 ha         1 C9O       0.124000
     46 H14         -0.3050     1.0690     3.0990 ha         1 C9O       0.137000
     47 O23          7.6560     1.5220    -1.1650 os         1 C9O      -0.397600
     48 S05         -4.4260    -0.6690    -0.4330 sy         1 C9O       1.147600
     49 Br1         -0.0340     2.7170     0.6190 br         1 C9O      -0.072100
@<TRIPOS>BOND
     1     1    13 ar  
     2     1    14 1   
     3     1    15 ar  
     4     2    17 2   
     5     2    18 1   
     6     2    24 1   
     7     3    18 ar  
     8     3    19 ar  
     9     3    33 1   
    10     4    19 1   
    11     4    22 2   
    12     4    47 1   
    13     5    34 1   
    14     5    35 1   
    15     5    36 1   
    16     5    47 1   
    17     6    18 ar  
    18     6    23 ar  
    19     6    37 1   
    20     7     8 ar  
    21     7    32 ar  
    22     7    49 1   
    23     8     9 ar  
    24     8    38 1   
    25     9    30 ar  
    26     9    48 1   
    27    10    11 1   
    28    10    39 1   
    29    10    48 1   
    30    11    12 ar  
    31    11    26 ar  
    32    12    13 ar  
    33    12    40 1   
    34    13    41 1   
    35    15    16 1   
    36    15    26 ar  
    37    16    17 1   
    38    16    25 1   
    39    17    42 1   
    40    19    20 ar  
    41    20    21 1   
    42    20    23 ar  
    43    21    22 1   
    44    21    43 1   
    45    24    25 2   
    46    26    27 1   
    47    28    48 2   
    48    29    48 2   
    49    30    31 ar  
    50    30    44 1   
    51    31    32 ar  
    52    31    45 1   
    53    32    46 1   
@<TRIPOS>SUBSTRUCTURE
     1 C9O         1 TEMP              0 ****  ****    0 ROOT
