@<TRIPOS>MOLECULE
C9Q
   35    37     1     0     0
SMALL
No Charge or Current Charge


@<TRIPOS>ATOM
      1 C1          -1.3350    -3.0070     0.2840 ca         1 C9Q      -0.192000
      2 C2          -1.1610    -1.6270     0.0280 cp         1 C9Q       0.060000
      3 C3           0.1790    -1.1780     0.0500 ca         1 C9Q      -0.144800
      4 C7           5.4860     1.7890    -0.2190 c3         1 C9Q       0.101000
      5 C8           6.8450     1.1220     0.0410 c3         1 C9Q      -0.111100
      6 C9           1.2240    -2.0400     0.3180 ca         1 C9Q       0.378500
      7 C10         -0.2190    -3.8200     0.5490 ca         1 C9Q       0.368900
      8 C11         -2.3220    -0.7280    -0.2460 cp         1 C9Q      -0.036000
      9 C12         -2.4290     0.5430     0.3710 ca         1 C9Q      -0.084000
     10 C13         -3.5270     1.3800     0.1150 ca         1 C9Q       0.117000
     11 C14         -4.5440     0.9630    -0.7580 ca         1 C9Q      -0.095000
     12 C15         -4.4640    -0.2980    -1.3730 ca         1 C9Q      -0.105000
     13 C16         -3.3640    -1.1360    -1.1150 ca         1 C9Q      -0.092000
     14 C4           0.7500     0.1150    -0.2050 cc         1 C9Q      -0.152200
     15 C5           2.1260     0.0030    -0.0660 cd         1 C9Q      -0.140300
     16 Cl1         -3.6310     2.9530     0.8950 cl         1 C9Q      -0.200000
     17 C6           3.0580     1.1560    -0.2620 c          1 C9Q       0.627300
     18 O1           2.6920     2.2860    -0.5560 o          1 C9Q      -0.582100
     19 N2           2.4180    -1.3490     0.2700 na         1 C9Q      -0.321400
     20 N1           4.3850     0.8370    -0.0820 ns         1 C9Q      -0.506900
     21 N3           1.0510    -3.3490     0.5700 nb         1 C9Q      -0.683000
     22 H1          -2.3280    -3.4460     0.2910 ha         1 C9Q       0.126000
     23 H2           5.3370     2.6100     0.4960 h1         1 C9Q       0.054700
     24 H3           5.4710     2.2090    -1.2340 h1         1 C9Q       0.054700
     25 H4           6.8870     0.7110     1.0570 hc         1 C9Q       0.043367
     26 H5           7.0210     0.3090    -0.6730 hc         1 C9Q       0.043367
     27 H6           7.6540     1.8540    -0.0660 hc         1 C9Q       0.043367
     28 H7          -0.3450    -4.8830     0.7540 h4         1 C9Q       0.021100
     29 H8          -1.6620     0.8750     1.0660 ha         1 C9Q       0.137000
     30 H9          -5.3930     1.6130    -0.9540 ha         1 C9Q       0.131000
     31 H10         -5.2520    -0.6260    -2.0480 ha         1 C9Q       0.120000
     32 H11         -3.3120    -2.1070    -1.6020 ha         1 C9Q       0.121000
     33 H12          0.2240     1.0280    -0.4820 ha         1 C9Q       0.228000
     34 H13          3.3250    -1.7640     0.4380 hn         1 C9Q       0.361000
     35 H14          4.6000    -0.1210     0.1590 hn         1 C9Q       0.310500
@<TRIPOS>BOND
     1     1     2 ar  
     2     1     7 ar  
     3     1    22 1   
     4     2     3 ar  
     5     2     8 1   
     6     3     6 ar  
     7     3    14 1   
     8     4     5 1   
     9     4    20 1   
    10     4    23 1   
    11     4    24 1   
    12     5    25 1   
    13     5    26 1   
    14     5    27 1   
    15     6    19 1   
    16     6    21 ar  
    17     7    21 ar  
    18     7    28 1   
    19     8     9 ar  
    20     8    13 ar  
    21     9    10 ar  
    22     9    29 1   
    23    10    11 ar  
    24    10    16 1   
    25    11    12 ar  
    26    11    30 1   
    27    12    13 ar  
    28    12    31 1   
    29    13    32 1   
    30    14    15 2   
    31    14    33 1   
    32    15    17 1   
    33    15    19 1   
    34    17    18 2   
    35    17    20 1   
    36    19    34 1   
    37    20    35 1   
@<TRIPOS>SUBSTRUCTURE
     1 C9Q         1 TEMP              0 ****  ****    0 ROOT
