@<TRIPOS>MOLECULE
C9Q
   35    37     1     0     0
SMALL
abcg2


@<TRIPOS>ATOM
      1 C1          -1.2730    -2.9140     0.2740 ca         1 C9Q      -0.192000
      2 C2          -1.1430    -1.5650    -0.0220 cp         1 C9Q       0.060000
      3 C3           0.1680    -1.0750    -0.1180 ca         1 C9Q      -0.144800
      4 C7           5.4640     1.7230    -0.1730 c3         1 C9Q       0.101000
      5 C8           6.7470     1.1140     0.3570 c3         1 C9Q      -0.111100
      6 C9           1.2210    -1.9890     0.1180 ca         1 C9Q       0.378500
      7 C10         -0.1430    -3.7140     0.4730 ca         1 C9Q       0.368900
      8 C11         -2.3240    -0.7070    -0.2240 cp         1 C9Q      -0.036000
      9 C12         -2.3740     0.5640     0.3480 ca         1 C9Q      -0.084000
     10 C13         -3.4980     1.3510     0.1650 ca         1 C9Q       0.117000
     11 C14         -4.5820     0.9090    -0.5780 ca         1 C9Q      -0.095000
     12 C15         -4.5260    -0.3570    -1.1440 ca         1 C9Q      -0.105000
     13 C16         -3.4110    -1.1620    -0.9690 ca         1 C9Q      -0.092000
     14 C4           0.7740     0.1710    -0.4390 cc         1 C9Q      -0.152200
     15 C5           2.1270    -0.0170    -0.3670 cd         1 C9Q      -0.140300
     16 CL1         -3.5510     2.9240     0.8920 cl         1 C9Q      -0.200000
     17 C6           3.1610     1.0160    -0.5930 c          1 C9Q       0.627300
     18 O1           2.8950     2.0250    -1.2320 o          1 C9Q      -0.582100
     19 N2           2.3940    -1.3190    -0.0190 na         1 C9Q      -0.321400
     20 N1           4.3700     0.7740    -0.0650 ns         1 C9Q      -0.506900
     21 N3           1.1040    -3.2770     0.4020 nb         1 C9Q      -0.683000
     22 H1          -2.2520    -3.3630     0.3810 ha         1 C9Q       0.126000
     23 H2           5.2250     2.6380     0.3780 h1         1 C9Q       0.054700
     24 H3           5.5860     2.0050    -1.2190 h1         1 C9Q       0.054700
     25 H4           6.6530     0.8320     1.4070 hc         1 C9Q       0.043367
     26 H5           7.0310     0.2280    -0.2110 hc         1 C9Q       0.043367
     27 H6           7.5590     1.8360     0.2800 hc         1 C9Q       0.043367
     28 H7          -0.2730    -4.7640     0.7080 h4         1 C9Q       0.021100
     29 H8          -1.5530     0.9270     0.9510 ha         1 C9Q       0.137000
     30 H9          -5.4510     1.5370    -0.7140 ha         1 C9Q       0.131000
     31 H10         -5.3620    -0.7130    -1.7320 ha         1 C9Q       0.120000
     32 H11         -3.3780    -2.1390    -1.4320 ha         1 C9Q       0.121000
     33 H12          0.2890     1.1020    -0.6830 ha         1 C9Q       0.228000
     34 H13          3.3000    -1.7620    -0.0030 hn         1 C9Q       0.361000
     35 H14          4.4740     0.0380     0.6150 hn         1 C9Q       0.310500
@<TRIPOS>BOND
     1     1     2 ar  
     2     1     7 ar  
     3     1    22 1   
     4     2     3 ar  
     5     2     8 1   
     6     3     6 ar  
     7     3    14 1   
     8     4     5 1   
     9     4    20 1   
    10     4    23 1   
    11     4    24 1   
    12     5    25 1   
    13     5    26 1   
    14     5    27 1   
    15     6    19 1   
    16     6    21 ar  
    17     7    21 ar  
    18     7    28 1   
    19     8     9 ar  
    20     8    13 ar  
    21     9    10 ar  
    22     9    29 1   
    23    10    11 ar  
    24    10    16 1   
    25    11    12 ar  
    26    11    30 1   
    27    12    13 ar  
    28    12    31 1   
    29    13    32 1   
    30    14    15 2   
    31    14    33 1   
    32    15    17 1   
    33    15    19 1   
    34    17    18 2   
    35    17    20 1   
    36    19    34 1   
    37    20    35 1   
@<TRIPOS>SUBSTRUCTURE
     1 C9Q         1 TEMP              0 ****  ****    0 ROOT
