@<TRIPOS>MOLECULE
C9R
   55    60     1     0     0
SMALL
abcg2


@<TRIPOS>ATOM
      1 C10          7.9360     5.3480    17.7310 ca         1 C9R      -0.055000
      2 C13         10.5370     5.7290    18.6600 ca         1 C9R      -0.077000
      3 C15          8.1920     5.5090    19.1120 ca         1 C9R      -0.091000
      4 C20          9.6430     1.2790    10.8050 ca         1 C9R       0.215000
      5 C22         10.2590     2.4040    10.2790 ca         1 C9R      -0.089200
      6 C26         11.6820     2.1260     7.0660 cc         1 C9R       0.280500
      7 C28         13.0740     2.1440     5.0160 ca         1 C9R       0.059000
      8 C02         10.1440     3.6020    10.9650 ca         1 C9R       0.213000
      9 C03          9.4070     3.7000    12.1360 ca         1 C9R       0.235000
     10 C06          8.6990     5.2030    15.4290 ca         1 C9R      -0.256500
     11 C07          7.4090     5.0350    15.0050 ca         1 C9R      -0.008000
     12 C08          6.3520     5.0140    15.9340 ca         1 C9R      -0.141000
     13 C09          6.6130     5.1640    17.2650 ca         1 C9R      -0.037000
     14 C11          9.0180     5.3760    16.8080 ca         1 C9R       0.046000
     15 C12         10.3250     5.5750    17.3170 ca         1 C9R      -0.114000
     16 C14          9.4650     5.6940    19.5720 ca         1 C9R      -0.107000
     17 C18          8.7930     2.5530    12.6240 ca         1 C9R      -0.044000
     18 C19          8.9100     1.3370    11.9710 ca         1 C9R      -0.148000
     19 C27         11.8460     1.9460     5.6290 ca         1 C9R      -0.223500
     20 C29         13.1330     1.9500     3.6430 ca         1 C9R      -0.288900
     21 C30         11.9610     1.5700     2.9670 ca         1 C9R       0.402500
     22 C33         14.1070     2.0260     2.6060 cc         1 C9R       0.594200
     23 C35         16.2150     2.3810     1.6540 c3         1 C9R       0.151900
     24 C37         10.7440     1.5590     4.8330 ca         1 C9R       0.400900
     25 C38         10.5490     2.1010     7.8390 cd         1 C9R      -0.183000
     26 F21          9.7670     0.1310    10.1460 f          1 C9R      -0.150000
     27 N04          9.2870     4.9380    12.7880 nu         1 C9R      -0.942100
     28 N23         11.0020     2.3310     9.0880 na         1 C9R       0.212000
     29 N24         12.3230     2.4870     9.0970 nd         1 C9R      -0.157800
     30 N25         12.7320     2.3670     7.8910 nc         1 C9R      -0.353000
     31 N31         12.2840     1.4550     1.6680 na         1 C9R      -0.165100
     32 N32         13.5890     1.7290     1.4480 nd         1 C9R      -0.601100
     33 N36         10.7740     1.3710     3.5310 nb         1 C9R      -0.691000
     34 O16         10.5590     6.5710    14.2010 o          1 C9R      -0.523000
     35 O17         10.8950     4.0960    14.5140 o          1 C9R      -0.523000
     36 O34         15.3760     2.3560     2.8020 os         1 C9R      -0.397600
     37 S05         10.0210     5.2230    14.2410 sy         1 C9R       1.169600
     38 H1          11.5440     5.8810    19.0240 ha         1 C9R       0.122000
     39 H2           7.3570     5.4830    19.8010 ha         1 C9R       0.115000
     40 H3          13.9450     2.4400     5.5860 ha         1 C9R       0.153000
     41 H4           7.1860     4.9180    13.9540 ha         1 C9R       0.122000
     42 H5           5.3400     4.8760    15.5810 ha         1 C9R       0.120000
     43 H6           5.8060     5.1470    17.9860 ha         1 C9R       0.118000
     44 H7          11.1820     5.6120    16.6610 ha         1 C9R       0.128000
     45 H8           9.6520     5.8150    20.6300 ha         1 C9R       0.120000
     46 H9           8.2040     2.6080    13.5300 ha         1 C9R       0.136000
     47 H10          8.4320     0.4500    12.3610 ha         1 C9R       0.151000
     48 H11         17.2010     2.6740     2.0030 h1         1 C9R       0.049367
     49 H12         16.2750     1.3990     1.1820 h1         1 C9R       0.049367
     50 H13         15.8610     3.1040     0.9170 h1         1 C9R       0.049367
     51 H14          9.7820     1.3930     5.3060 h4         1 C9R       0.015100
     52 H15          9.5040     1.9660     7.6210 h4         1 C9R       0.172000
     53 H16          9.1190     5.7670    12.2300 hn         1 C9R       0.520000
     54 H17         11.6900     1.1870     0.9000 hn         1 C9R       0.389000
     55 F01         10.7390     4.6790    10.4720 f          1 C9R      -0.141000
@<TRIPOS>BOND
     1     1     3 ar  
     2     1    13 ar  
     3     1    14 ar  
     4     2    15 ar  
     5     2    16 ar  
     6     2    38 1   
     7     3    16 ar  
     8     3    39 1   
     9     4     5 ar  
    10     4    18 ar  
    11     4    26 1   
    12     5     8 ar  
    13     5    28 1   
    14     6    19 1   
    15     6    25 2   
    16     6    30 1   
    17     7    19 ar  
    18     7    20 ar  
    19     7    40 1   
    20     8     9 ar  
    21     8    55 1   
    22     9    17 ar  
    23     9    27 1   
    24    10    11 ar  
    25    10    14 ar  
    26    10    37 1   
    27    11    12 ar  
    28    11    41 1   
    29    12    13 ar  
    30    12    42 1   
    31    13    43 1   
    32    14    15 ar  
    33    15    44 1   
    34    16    45 1   
    35    17    18 ar  
    36    17    46 1   
    37    18    47 1   
    38    19    24 ar  
    39    20    21 ar  
    40    20    22 1   
    41    21    31 1   
    42    21    33 ar  
    43    22    32 2   
    44    22    36 1   
    45    23    36 1   
    46    23    48 1   
    47    23    49 1   
    48    23    50 1   
    49    24    33 ar  
    50    24    51 1   
    51    25    28 1   
    52    25    52 1   
    53    27    37 1   
    54    27    53 1   
    55    28    29 1   
    56    29    30 2   
    57    31    32 1   
    58    31    54 1   
    59    34    37 2   
    60    35    37 2   
@<TRIPOS>SUBSTRUCTURE
     1 C9R         1 TEMP              0 ****  ****    0 ROOT
