@<TRIPOS>MOLECULE
C9R
   55    60     1     0     0
SMALL
No Charge or Current Charge


@<TRIPOS>ATOM
      1 C10          7.1720     4.8330    16.7910 ca         1 C9R      -0.055000
      2 C13          8.8880     5.3670    18.9490 ca         1 C9R      -0.077000
      3 C15          6.7230     4.6630    18.1150 ca         1 C9R      -0.091000
      4 C20         11.2230     1.4960    11.4910 ca         1 C9R       0.215000
      5 C22         11.6630     2.6080    10.7530 ca         1 C9R      -0.089200
      6 C26         12.2600     2.2520     7.3990 cc         1 C9R       0.280500
      7 C28         12.8350     2.0030     4.9830 ca         1 C9R       0.059000
      8 C02         11.5440     3.8970    11.3110 ca         1 C9R       0.213000
      9 C03         10.9860     4.0890    12.6020 ca         1 C9R       0.235000
     10 C06          8.9230     5.4100    15.1720 ca         1 C9R      -0.256500
     11 C07          7.9970     5.1810    14.1290 ca         1 C9R      -0.008000
     12 C08          6.6890     4.7650    14.4090 ca         1 C9R      -0.141000
     13 C09          6.2790     4.5820    15.7350 ca         1 C9R      -0.037000
     14 C11          8.5010     5.2610    16.5260 ca         1 C9R       0.046000
     15 C12          9.3450     5.5380    17.6310 ca         1 C9R      -0.114000
     16 C14          7.5810     4.9250    19.1920 ca         1 C9R      -0.107000
     17 C18         10.5490     2.9550    13.3210 ca         1 C9R      -0.044000
     18 C19         10.6680     1.6670    12.7670 ca         1 C9R      -0.148000
     19 C27         11.8620     2.1640     5.9930 ca         1 C9R      -0.223500
     20 C29         12.3520     1.9290     3.6760 ca         1 C9R      -0.288900
     21 C30         11.0270     2.0050     3.3730 ca         1 C9R       0.402500
     22 C33         13.0040     1.7720     2.4200 cc         1 C9R       0.594200
     23 C35         14.9850     1.5010     1.0290 c3         1 C9R       0.151900
     24 C37         10.5000     2.2350     5.6020 ca         1 C9R       0.400900
     25 C38         11.3670     2.4190     8.4140 cd         1 C9R      -0.183000
     26 F21         11.3270     0.2480    10.9780 f          1 C9R      -0.150000
     27 N04         10.8670     5.3870    13.1350 nu         1 C9R      -0.942100
     28 N23         12.2160     2.4370     9.4890 na         1 C9R       0.212000
     29 N24         13.5330     2.2980     9.1570 nd         1 C9R      -0.157800
     30 N25         13.5540     2.1800     7.8500 nc         1 C9R      -0.353000
     31 N31         10.9460     1.8940     1.9920 na         1 C9R      -0.165100
     32 N32         12.1960     1.7430     1.3590 nd         1 C9R      -0.601100
     33 N36         10.0790     2.1580     4.3120 nb         1 C9R      -0.691000
     34 O16         10.6720     7.3570    14.5890 o          1 C9R      -0.523000
     35 O17         11.5930     5.1510    15.4930 o          1 C9R      -0.523000
     36 O34         14.3640     1.6580     2.3180 os         1 C9R      -0.397600
     37 S05         10.6050     5.9010    14.7140 sy         1 C9R       1.169600
     38 H1           9.5500     5.5830    19.7850 ha         1 C9R       0.122000
     39 H2           5.7060     4.3300    18.3110 ha         1 C9R       0.115000
     40 H3          13.9010     1.9390     5.1990 ha         1 C9R       0.153000
     41 H4           8.2840     5.3170    13.0880 ha         1 C9R       0.122000
     42 H5           5.9910     4.5830    13.5950 ha         1 C9R       0.120000
     43 H6           5.2610     4.2560    15.9410 ha         1 C9R       0.118000
     44 H7          10.3580     5.9000    17.5030 ha         1 C9R       0.128000
     45 H8           7.2300     4.7940    20.2140 ha         1 C9R       0.120000
     46 H9          10.1130     3.0580    14.3090 ha         1 C9R       0.136000
     47 H10         10.3280     0.7990    13.3280 ha         1 C9R       0.151000
     48 H11         16.0750     1.4260     1.1380 h1         1 C9R       0.049367
     49 H12         14.6300     0.5890     0.5320 h1         1 C9R       0.049367
     50 H13         14.7670     2.3600     0.3810 h1         1 C9R       0.049367
     51 H14          9.7080     2.3580     6.3370 h4         1 C9R       0.015100
     52 H15         10.2920     2.5180     8.4660 h4         1 C9R       0.172000
     53 H16         11.3330     6.1490    12.6570 hn         1 C9R       0.520000
     54 H17         10.0740     1.9160     1.4690 hn         1 C9R       0.389000
     55 F01         11.9680     4.9730    10.6000 f          1 C9R      -0.141000
@<TRIPOS>BOND
     1     1     3 ar  
     2     1    13 ar  
     3     1    14 ar  
     4     2    15 ar  
     5     2    16 ar  
     6     2    38 1   
     7     3    16 ar  
     8     3    39 1   
     9     4     5 ar  
    10     4    18 ar  
    11     4    26 1   
    12     5     8 ar  
    13     5    28 1   
    14     6    19 1   
    15     6    25 2   
    16     6    30 1   
    17     7    19 ar  
    18     7    20 ar  
    19     7    40 1   
    20     8     9 ar  
    21     8    55 1   
    22     9    17 ar  
    23     9    27 1   
    24    10    11 ar  
    25    10    14 ar  
    26    10    37 1   
    27    11    12 ar  
    28    11    41 1   
    29    12    13 ar  
    30    12    42 1   
    31    13    43 1   
    32    14    15 ar  
    33    15    44 1   
    34    16    45 1   
    35    17    18 ar  
    36    17    46 1   
    37    18    47 1   
    38    19    24 ar  
    39    20    21 ar  
    40    20    22 1   
    41    21    31 1   
    42    21    33 ar  
    43    22    32 2   
    44    22    36 1   
    45    23    36 1   
    46    23    48 1   
    47    23    49 1   
    48    23    50 1   
    49    24    33 ar  
    50    24    51 1   
    51    25    28 1   
    52    25    52 1   
    53    27    37 1   
    54    27    53 1   
    55    28    29 1   
    56    29    30 2   
    57    31    32 1   
    58    31    54 1   
    59    34    37 2   
    60    35    37 2   
@<TRIPOS>SUBSTRUCTURE
     1 C9R         1 TEMP              0 ****  ****    0 ROOT
