@<TRIPOS>MOLECULE
C9T
   28    27     1     0     0
SMALL
abcg2


@<TRIPOS>ATOM
      1 C1           5.7070    -0.1350    -0.1510 c3         1 C9T      -0.087100
      2 C2           4.4040     0.6180     0.0820 c3         1 C9T      -0.076400
      3 C3           3.1720    -0.2580    -0.1020 c3         1 C9T      -0.076400
      4 C4           1.8600     0.4820     0.1290 c3         1 C9T      -0.075400
      5 C5           0.6310    -0.3900    -0.1000 c3         1 C9T      -0.078400
      6 C6          -0.6800     0.3380     0.1820 c3         1 C9T      -0.051400
      7 C7          -1.9270    -0.4260    -0.2530 c3         1 C9T      -0.191700
      8 C7B         -2.0710    -1.7680     0.4690 c3         1 C9T      -0.061100
      9 C           -3.2350     0.3820    -0.0890 c          1 C9T       0.719000
     10 O           -3.1840     1.4680     0.5220 o          1 C9T      -0.739500
     11 H11          5.8180    -0.9630     0.5510 hc         1 C9T       0.024367
     12 H13          5.7440    -0.5530    -1.1590 hc         1 C9T       0.024367
     13 H12          6.5740     0.5170    -0.0330 hc         1 C9T       0.024367
     14 H21          4.4000     1.0410     1.0920 hc         1 C9T       0.034200
     15 H22          4.3490     1.4700    -0.6030 hc         1 C9T       0.034200
     16 H32          3.1760    -0.6800    -1.1140 hc         1 C9T       0.031200
     17 H31          3.2290    -1.1130     0.5810 hc         1 C9T       0.031200
     18 H41          1.8430     0.8780     1.1510 hc         1 C9T       0.033700
     19 H42          1.8150     1.3530    -0.5340 hc         1 C9T       0.033700
     20 H52          0.6340    -0.7490    -1.1360 hc         1 C9T       0.024200
     21 H51          0.7070    -1.2820     0.5280 hc         1 C9T       0.024200
     22 H61         -0.7430     0.5670     1.2510 hc         1 C9T       0.040200
     23 H62         -0.6600     1.3050    -0.3300 hc         1 C9T       0.040200
     24 H7          -1.8260    -0.6470    -1.3250 hc         1 C9T       0.023700
     25 HB2         -2.9510    -2.3050     0.1180 hc         1 C9T       0.010700
     26 HB1         -1.2070    -2.4150     0.3100 hc         1 C9T       0.010700
     27 HB3         -2.1770    -1.6230     1.5470 hc         1 C9T       0.010700
     28 O1          -4.2620    -0.1330    -0.5820 o          1 C9T      -0.739500
@<TRIPOS>BOND
     1     1     2 1   
     2     1    11 1   
     3     1    12 1   
     4     1    13 1   
     5     2     3 1   
     6     2    14 1   
     7     2    15 1   
     8     3     4 1   
     9     3    16 1   
    10     3    17 1   
    11     4     5 1   
    12     4    18 1   
    13     4    19 1   
    14     5     6 1   
    15     5    20 1   
    16     5    21 1   
    17     6     7 1   
    18     6    22 1   
    19     6    23 1   
    20     7     8 1   
    21     7     9 1   
    22     7    24 1   
    23     8    25 1   
    24     8    26 1   
    25     8    27 1   
    26     9    10 1   
    27     9    28 1   
@<TRIPOS>SUBSTRUCTURE
     1 C9T         1 TEMP              0 ****  ****    0 ROOT
