@<TRIPOS>MOLECULE
C9T
   28    27     1     0     0
SMALL
No Charge or Current Charge


@<TRIPOS>ATOM
      1 C1           5.7730    -0.1010    -0.1710 c3         1 C9T      -0.087100
      2 C2           4.4410     0.6320     0.0790 c3         1 C9T      -0.076400
      3 C3           3.2040    -0.2610    -0.1620 c3         1 C9T      -0.076400
      4 C4           1.8690     0.4740     0.0890 c3         1 C9T      -0.075400
      5 C5           0.6320    -0.4200    -0.1510 c3         1 C9T      -0.078400
      6 C6          -0.7040     0.3180     0.1040 c3         1 C9T      -0.051400
      7 C7          -1.9770    -0.5180    -0.2110 c3         1 C9T      -0.191700
      8 C7B         -2.1460    -1.7470     0.7190 c3         1 C9T      -0.061100
      9 C           -3.2430     0.3730    -0.1860 c          1 C9T       0.719000
     10 O           -3.5600     0.9160     0.8620 o          1 C9T      -0.739500
     11 H11          5.8710    -0.9650     0.4960 hc         1 C9T       0.024367
     12 H13          5.8330    -0.4540    -1.2080 hc         1 C9T       0.024367
     13 H12          6.6190     0.5720     0.0110 hc         1 C9T       0.024367
     14 H21          4.4270     1.0030     1.1110 hc         1 C9T       0.034200
     15 H22          4.3890     1.5100    -0.5770 hc         1 C9T       0.034200
     16 H32          3.2230    -0.6310    -1.1940 hc         1 C9T       0.031200
     17 H31          3.2610    -1.1390     0.4950 hc         1 C9T       0.031200
     18 H41          1.8500     0.8440     1.1220 hc         1 C9T       0.033700
     19 H42          1.8130     1.3520    -0.5670 hc         1 C9T       0.033700
     20 H52          0.6500    -0.7870    -1.1850 hc         1 C9T       0.024200
     21 H51          0.7000    -1.2960     0.5040 hc         1 C9T       0.024200
     22 H61         -0.7370     0.6560     1.1470 hc         1 C9T       0.040200
     23 H62         -0.7230     1.2230    -0.5170 hc         1 C9T       0.040200
     24 H7          -1.8700    -0.9030    -1.2330 hc         1 C9T       0.023700
     25 HB2         -3.0820    -2.2710     0.4900 hc         1 C9T       0.010700
     26 HB1         -1.3250    -2.4600     0.5870 hc         1 C9T       0.010700
     27 HB3         -2.1730    -1.4420     1.7720 hc         1 C9T       0.010700
     28 O1          -3.8770     0.5000    -1.2240 o          1 C9T      -0.739500
@<TRIPOS>BOND
     1     1     2 1   
     2     1    11 1   
     3     1    12 1   
     4     1    13 1   
     5     2     3 1   
     6     2    14 1   
     7     2    15 1   
     8     3     4 1   
     9     3    16 1   
    10     3    17 1   
    11     4     5 1   
    12     4    18 1   
    13     4    19 1   
    14     5     6 1   
    15     5    20 1   
    16     5    21 1   
    17     6     7 1   
    18     6    22 1   
    19     6    23 1   
    20     7     8 1   
    21     7     9 1   
    22     7    24 1   
    23     8    25 1   
    24     8    26 1   
    25     8    27 1   
    26     9    10 1   
    27     9    28 1   
@<TRIPOS>SUBSTRUCTURE
     1 C9T         1 TEMP              0 ****  ****    0 ROOT
