@<TRIPOS>MOLECULE
C9U
   58    62     1     0     0
SMALL
No Charge or Current Charge


@<TRIPOS>ATOM
      1 C01          6.3550    21.1620    14.7560 c3         1 C9U      -0.110100
      2 C02          7.5220    21.6770    15.6220 c3         1 C9U       0.087600
      3 N03          7.2420    22.9780    16.2510 na         1 C9U       0.137800
      4 C04          7.3830    24.2230    15.6540 cc         1 C9U      -0.114000
      5 C05          7.0370    25.1110    16.6390 cd         1 C9U      -0.278500
      6 C06          6.6210    24.3310    17.7510 cd         1 C9U       0.333500
      7 N07          6.7740    23.0370    17.5450 nc         1 C9U      -0.519800
      8 C08          6.0510    24.8020    19.0180 ca         1 C9U      -0.173500
      9 C09          6.4300    24.1970    20.2320 ca         1 C9U       0.361900
     10 N10          5.9110    24.5490    21.4330 nb         1 C9U      -0.670000
     11 C11          4.9650    25.5150    21.4530 ca         1 C9U       0.338900
     12 C12          4.4990    26.1490    20.2890 ca         1 C9U      -0.170000
     13 C13          5.0390    25.7820    19.0460 ca         1 C9U      -0.056000
     14 C14          7.0150    26.5720    16.4800 ca         1 C9U       0.267500
     15 N15          6.7300    27.0440    15.2500 nb         1 C9U      -0.256000
     16 C16          6.6510    28.3790    15.1100 ca         1 C9U       0.390900
     17 N17          6.3940    28.9020    13.8490 nu         1 C9U      -0.927900
     18 C18          6.0390    28.3520    12.6110 ca         1 C9U       0.291000
     19 C19          5.3400    27.1350    12.4940 ca         1 C9U      -0.127000
     20 C20          4.9930    26.6270    11.2270 ca         1 C9U      -0.128500
     21 C21          5.3320    27.3290    10.0520 ca         1 C9U       0.259000
     22 C22          6.0150    28.5540    10.1750 ca         1 C9U      -0.128500
     23 C23          6.3600    29.0620    11.4410 ca         1 C9U      -0.127000
     24 N24          4.9920    26.8350     8.7680 nh         1 C9U      -0.785400
     25 C25          6.0500    26.6750     7.7160 c6         1 C9U       0.195300
     26 C26          5.4620    26.6710     6.2640 c6         1 C9U       0.151300
     27 N27          4.3490    25.6940     6.0860 n7         1 C9U      -0.861400
     28 C28          3.2840    25.9130     7.1080 c6         1 C9U       0.151300
     29 C29          3.8310    25.9040     8.5760 c6         1 C9U       0.195300
     30 N30          6.8420    29.2980    16.0720 nb         1 C9U      -0.249000
     31 C31          7.1190    28.8300    17.3030 ca         1 C9U       0.150900
     32 C32          7.2100    27.4530    17.5580 ca         1 C9U      -0.272000
     33 H1           6.6100    20.1940    14.3090 hc         1 C9U       0.052700
     34 H2           5.4510    21.0340    15.3640 hc         1 C9U       0.052700
     35 H3           6.1320    21.8680    13.9470 hc         1 C9U       0.052700
     36 H4           7.7430    20.9440    16.4080 h1         1 C9U       0.063200
     37 H5           8.4190    21.7800    14.9990 h1         1 C9U       0.063200
     38 H6           7.7230    24.3610    14.6350 h4         1 C9U       0.169000
     39 H7           7.1860    23.4120    20.2510 h4         1 C9U       0.029100
     40 H8           4.5610    25.7810    22.4290 h4         1 C9U       0.019100
     41 H9           3.7250    26.9080    20.3560 ha         1 C9U       0.125000
     42 H10          4.6770    26.2450    18.1300 ha         1 C9U       0.127000
     43 H11          6.5790    29.9050    13.8120 hn         1 C9U       0.509000
     44 H12          5.0450    26.5810    13.3780 ha         1 C9U       0.127000
     45 H13          4.4640    25.6810    11.1700 ha         1 C9U       0.113000
     46 H14          6.2690    29.1240     9.2860 ha         1 C9U       0.113000
     47 H15          6.8860    30.0110    11.5090 ha         1 C9U       0.127000
     48 H16          6.5860    25.7280     7.8800 h1         1 C9U       0.042700
     49 H17          6.7950    27.4800     7.7830 h1         1 C9U       0.042700
     50 H18          6.2660    26.4470     5.5470 h1         1 C9U       0.038200
     51 H19          5.0920    27.6810     6.0330 h1         1 C9U       0.038200
     52 H20          3.9440    25.8120     5.1480 hn         1 C9U       0.412000
     53 H22          2.8030    26.8850     6.9200 h1         1 C9U       0.038200
     54 H23          2.5090    25.1400     7.0030 h1         1 C9U       0.038200
     55 H24          3.0060    26.1790     9.2500 h1         1 C9U       0.042700
     56 H25          4.1340    24.8770     8.8320 h1         1 C9U       0.042700
     57 H26          7.2720    29.5660    18.0900 h4         1 C9U       0.022100
     58 H27          7.4480    27.0920    18.5530 ha         1 C9U       0.143000
@<TRIPOS>BOND
     1     1     2 1   
     2     1    33 1   
     3     1    34 1   
     4     1    35 1   
     5     2     3 1   
     6     2    36 1   
     7     2    37 1   
     8     3     4 1   
     9     3     7 1   
    10     4     5 2   
    11     4    38 1   
    12     5     6 1   
    13     5    14 1   
    14     6     7 2   
    15     6     8 1   
    16     8     9 ar  
    17     8    13 ar  
    18     9    10 ar  
    19     9    39 1   
    20    10    11 ar  
    21    11    12 ar  
    22    11    40 1   
    23    12    13 ar  
    24    12    41 1   
    25    13    42 1   
    26    14    15 ar  
    27    14    32 ar  
    28    15    16 ar  
    29    16    17 1   
    30    16    30 ar  
    31    17    18 1   
    32    17    43 1   
    33    18    19 ar  
    34    18    23 ar  
    35    19    20 ar  
    36    19    44 1   
    37    20    21 ar  
    38    20    45 1   
    39    21    22 ar  
    40    21    24 1   
    41    22    23 ar  
    42    22    46 1   
    43    23    47 1   
    44    24    25 1   
    45    24    29 1   
    46    25    26 1   
    47    25    48 1   
    48    25    49 1   
    49    26    27 1   
    50    26    50 1   
    51    26    51 1   
    52    27    28 1   
    53    27    52 1   
    54    28    29 1   
    55    28    53 1   
    56    28    54 1   
    57    29    55 1   
    58    29    56 1   
    59    30    31 ar  
    60    31    32 ar  
    61    31    57 1   
    62    32    58 1   
@<TRIPOS>SUBSTRUCTURE
     1 C9U         1 TEMP              0 ****  ****    0 ROOT
