@<TRIPOS>MOLECULE
C9U
   58    62     1     0     0
SMALL
abcg2


@<TRIPOS>ATOM
      1 C01          5.6300    21.0770    15.2540 c3         1 C9U      -0.110100
      2 C02          6.9430    21.8310    15.3530 c3         1 C9U       0.087600
      3 N03          6.8010    23.0990    16.0450 na         1 C9U       0.137800
      4 C04          6.8590    24.3240    15.5150 cc         1 C9U      -0.114000
      5 C05          6.6400    25.2230    16.5440 cd         1 C9U      -0.278500
      6 C06          6.4360    24.3970    17.6770 cd         1 C9U       0.333500
      7 N07          6.5360    23.1210    17.3460 nc         1 C9U      -0.519800
      8 C08          6.1110    24.7590    19.0600 ca         1 C9U      -0.173500
      9 C09          6.7470    24.1230    20.1250 ca         1 C9U       0.361900
     10 N10          6.4800    24.3740    21.3990 nb         1 C9U      -0.670000
     11 C11          5.5540    25.2850    21.6750 ca         1 C9U       0.338900
     12 C12          4.8570    25.9760    20.6950 ca         1 C9U      -0.170000
     13 C13          5.1360    25.7040    19.3670 ca         1 C9U      -0.056000
     14 C14          6.7100    26.6710    16.3970 ca         1 C9U       0.267500
     15 N15          6.4740    27.1400    15.1710 nb         1 C9U      -0.256000
     16 C16          6.5680    28.4490    14.9820 ca         1 C9U       0.390900
     17 N17          6.3540    28.9730    13.7480 nu         1 C9U      -0.927900
     18 C18          6.0450    28.3690    12.5280 ca         1 C9U       0.291000
     19 C19          5.6770    27.0390    12.3500 ca         1 C9U      -0.127000
     20 C20          5.3770    26.5530    11.0810 ca         1 C9U      -0.128500
     21 C21          5.4060    27.3660     9.9490 ca         1 C9U       0.259000
     22 C22          5.7690    28.7060    10.1430 ca         1 C9U      -0.128500
     23 C23          6.0850    29.1900    11.3950 ca         1 C9U      -0.127000
     24 N24          5.0590    26.9150     8.6710 nh         1 C9U      -0.785400
     25 C25          6.0280    27.1570     7.6090 c6         1 C9U       0.195300
     26 C26          5.3820    26.9640     6.2500 c6         1 C9U       0.151300
     27 N27          4.8310    25.6250     6.1640 n7         1 C9U      -0.861400
     28 C28          3.8290    25.4270     7.1930 c6         1 C9U       0.151300
     29 C29          4.4590    25.6000     8.5640 c6         1 C9U       0.195300
     30 N30          6.8650    29.3570    15.9230 nb         1 C9U      -0.249000
     31 C31          7.1030    28.8780    17.1300 ca         1 C9U       0.150900
     32 C32          7.0490    27.5280    17.4390 ca         1 C9U      -0.272000
     33 H1           5.7890    20.1440    14.7160 hc         1 C9U       0.052700
     34 H2           5.2370    20.8350    16.2400 hc         1 C9U       0.052700
     35 H3           4.8820    21.6580    14.7150 hc         1 C9U       0.052700
     36 H4           7.6930    21.2420    15.8810 h1         1 C9U       0.063200
     37 H5           7.3370    22.0540    14.3630 h1         1 C9U       0.063200
     38 H6           7.0760    24.4890    14.4730 h4         1 C9U       0.169000
     39 H7           7.5140    23.3810    19.9280 h4         1 C9U       0.029100
     40 H8           5.3550    25.4740    22.7240 h4         1 C9U       0.019100
     41 H9           4.1040    26.7030    20.9690 ha         1 C9U       0.125000
     42 H10          4.5940    26.2120    18.5800 ha         1 C9U       0.127000
     43 H11          6.4860    29.9720    13.7120 hn         1 C9U       0.509000
     44 H12          5.6330    26.3670    13.1910 ha         1 C9U       0.127000
     45 H13          5.1210    25.5050    10.9980 ha         1 C9U       0.113000
     46 H14          5.7870    29.3920     9.3060 ha         1 C9U       0.113000
     47 H15          6.3560    30.2350    11.4990 ha         1 C9U       0.127000
     48 H16          6.8850    26.4730     7.7010 h1         1 C9U       0.042700
     49 H17          6.4120    28.1740     7.6770 h1         1 C9U       0.042700
     50 H18          6.1400    27.0960     5.4760 h1         1 C9U       0.038200
     51 H19          4.6210    27.7480     6.1060 h1         1 C9U       0.038200
     52 H20          4.4170    25.4830     5.2520 hn         1 C9U       0.412000
     53 H22          2.9860    26.1320     7.1070 h1         1 C9U       0.038200
     54 H23          3.4210    24.4180     7.1150 h1         1 C9U       0.038200
     55 H24          3.6810    25.4950     9.3220 h1         1 C9U       0.042700
     56 H25          5.1960    24.7980     8.7310 h1         1 C9U       0.042700
     57 H26          7.3580    29.6020    17.8950 h4         1 C9U       0.022100
     58 H27          7.2810    27.1770    18.4330 ha         1 C9U       0.143000
@<TRIPOS>BOND
     1     1     2 1   
     2     1    33 1   
     3     1    34 1   
     4     1    35 1   
     5     2     3 1   
     6     2    36 1   
     7     2    37 1   
     8     3     4 1   
     9     3     7 1   
    10     4     5 2   
    11     4    38 1   
    12     5     6 1   
    13     5    14 1   
    14     6     7 2   
    15     6     8 1   
    16     8     9 ar  
    17     8    13 ar  
    18     9    10 ar  
    19     9    39 1   
    20    10    11 ar  
    21    11    12 ar  
    22    11    40 1   
    23    12    13 ar  
    24    12    41 1   
    25    13    42 1   
    26    14    15 ar  
    27    14    32 ar  
    28    15    16 ar  
    29    16    17 1   
    30    16    30 ar  
    31    17    18 1   
    32    17    43 1   
    33    18    19 ar  
    34    18    23 ar  
    35    19    20 ar  
    36    19    44 1   
    37    20    21 ar  
    38    20    45 1   
    39    21    22 ar  
    40    21    24 1   
    41    22    23 ar  
    42    22    46 1   
    43    23    47 1   
    44    24    25 1   
    45    24    29 1   
    46    25    26 1   
    47    25    48 1   
    48    25    49 1   
    49    26    27 1   
    50    26    50 1   
    51    26    51 1   
    52    27    28 1   
    53    27    52 1   
    54    28    29 1   
    55    28    53 1   
    56    28    54 1   
    57    29    55 1   
    58    29    56 1   
    59    30    31 ar  
    60    31    32 ar  
    61    31    57 1   
    62    32    58 1   
@<TRIPOS>SUBSTRUCTURE
     1 C9U         1 TEMP              0 ****  ****    0 ROOT
