@<TRIPOS>MOLECULE
C9X
   83    87     1     0     0
SMALL
No Charge or Current Charge


@<TRIPOS>ATOM
      1 C12          3.8900    -1.3130    -1.8880 c6         1 C9X       0.197600
      2 C36         -6.4330    -2.7490    -1.8070 ca         1 C9X      -0.111500
      3 C35         -5.5960    -1.6200    -1.8220 ca         1 C9X      -0.099500
      4 C34         -5.5930    -0.7200    -0.7370 ca         1 C9X      -0.097300
      5 C33         -4.6810     0.5060    -0.7560 c3         1 C9X       0.262100
      6 C31         -2.4680     1.0920    -1.8510 c3         1 C9X       0.201800
      7 C30         -1.8240     2.3520    -1.2020 c3         1 C9X       0.128600
      8 O28         -2.1620     2.1420     1.5560 o          1 C9X      -0.514000
      9 O26          2.8210     3.3710    -3.0150 o          1 C9X      -0.408500
     10 O25          4.0950     4.9200    -2.1560 o          1 C9X      -0.408500
     11 C23          2.2860     2.2400    -0.5090 ca         1 C9X      -0.012000
     12 C22          3.1080     3.3780    -0.6810 ca         1 C9X      -0.185200
     13 C21          3.6880     3.9850     0.4580 ca         1 C9X      -0.047000
     14 C20          3.4460     3.4600     1.7380 ca         1 C9X      -0.128000
     15 C19          2.6290     2.3300     1.8980 ca         1 C9X      -0.053000
     16 C18          2.0450     1.7120     0.7750 ca         1 C9X      -0.084300
     17 C16          3.2200    -3.5240    -0.8740 c6         1 C9X       0.197600
     18 C15          3.9660    -3.4270    -3.3050 c3         1 C9X      -0.082100
     19 C13          3.2010    -2.6740    -2.1760 c6         1 C9X      -0.133000
     20 C02          1.7110    -1.0290     2.8980 c2         1 C9X       0.235800
     21 N03          0.6830    -0.4040     3.5830 nu         1 C9X      -0.685000
     22 C04         -0.2640     0.4600     3.0430 c2         1 C9X       0.206800
     23 C05         -1.3870     0.7980     4.0080 c3         1 C9X      -0.067900
     24 C06         -0.1100     0.8690     1.7580 ce         1 C9X      -0.255400
     25 C07          1.1500     0.4750     0.9550 c6         1 C9X       0.149000
     26 C08          1.9430    -0.6450     1.6340 ce         1 C9X      -0.424800
     27 P09          3.2420    -1.3950     0.6330 py         1 C9X       1.249400
     28 O10          4.5630    -1.5010     1.3100 o          1 C9X      -0.581000
     29 O11          3.2520    -0.6390    -0.7950 os         1 C9X      -0.596900
     30 C14          1.7400    -2.4460    -2.6770 c3         1 C9X      -0.082100
     31 O17          2.6110    -2.8250     0.2230 os         1 C9X      -0.596900
     32 N24          3.3610     3.9290    -2.0500 no         1 C9X       0.696200
     33 O29         -0.8010     1.9420    -0.2680 os         1 C9X      -0.447100
     34 N32         -3.2430     0.1940    -0.9430 nh         1 C9X      -0.823400
     35 C37         -7.2740    -2.9870    -0.7070 ca         1 C9X      -0.109000
     36 C38         -7.2780    -2.0940     0.3770 ca         1 C9X      -0.111500
     37 C39         -6.4410    -0.9640     0.3630 ca         1 C9X      -0.099500
     38 C40         -2.6120    -0.8310    -0.1870 ca         1 C9X       0.325000
     39 C41         -1.6000    -1.6340    -0.7520 ca         1 C9X      -0.173500
     40 C42         -0.9620    -2.6300     0.0090 ca         1 C9X      -0.079000
     41 C43         -1.3350    -2.8390     1.3450 ca         1 C9X      -0.160000
     42 C44         -2.3510    -2.0600     1.9170 ca         1 C9X      -0.079000
     43 C45         -2.9840    -1.0640     1.1540 ca         1 C9X      -0.173500
     44 H1           4.9530    -1.4660    -1.6460 h1         1 C9X       0.062700
     45 H2           3.8410    -0.6690    -2.7780 h1         1 C9X       0.062700
     46 H4          -4.9440    -1.4430    -2.6740 ha         1 C9X       0.115500
     47 H5          -5.0330     1.1620    -1.5640 h1         1 C9X       0.053700
     48 H6          -4.8110     1.0730     0.1760 h1         1 C9X       0.053700
     49 H7          -3.1240     1.4390    -2.6610 h1         1 C9X       0.060200
     50 H8          -1.6690     0.5340    -2.3540 h1         1 C9X       0.060200
     51 H9          -1.3690     2.9440    -2.0050 h1         1 C9X       0.067700
     52 H10         -2.5940     2.9770    -0.7320 h1         1 C9X       0.067700
     53 H11          1.8320     1.7540    -1.3710 ha         1 C9X       0.151000
     54 H12          4.3250     4.8630     0.3600 ha         1 C9X       0.147000
     55 H13          3.8930     3.9320     2.6100 ha         1 C9X       0.124000
     56 H14          2.4480     1.9340     2.8940 ha         1 C9X       0.122000
     57 H15          2.6810    -4.4700    -1.0330 h1         1 C9X       0.062700
     58 H16          4.2560    -3.7760    -0.6020 h1         1 C9X       0.062700
     59 H17          5.0080    -3.6210    -3.0220 hc         1 C9X       0.043867
     60 H18          3.5010    -4.3950    -3.5290 hc         1 C9X       0.043867
     61 H19          3.9830    -2.8460    -4.2360 hc         1 C9X       0.043867
     62 H24          0.5460    -0.6860     4.5520 hn         1 C9X       0.498000
     63 H25         -1.2440     0.3520     4.9990 hc         1 C9X       0.064700
     64 H26         -1.4620     1.8820     4.1520 hc         1 C9X       0.064700
     65 H27         -2.3520     0.4410     3.6310 hc         1 C9X       0.064700
     66 H28          0.8280     0.0940    -0.0250 hc         1 C9X       0.074700
     67 H30          1.7210    -1.8900    -3.6220 hc         1 C9X       0.043867
     68 H31          1.2180    -3.3970    -2.8420 hc         1 C9X       0.043867
     69 H32          1.1520    -1.8690    -1.9540 hc         1 C9X       0.043867
     70 H33         -7.9210    -3.8610    -0.6960 ha         1 C9X       0.111000
     71 H34         -7.9290    -2.2770     1.2290 ha         1 C9X       0.111000
     72 H35         -6.4520    -0.2790     1.2080 ha         1 C9X       0.115500
     73 H36         -1.3090    -1.5000    -1.7880 ha         1 C9X       0.113500
     74 H37         -0.1810    -3.2420    -0.4350 ha         1 C9X       0.111500
     75 H38         -0.8370    -3.6050     1.9350 ha         1 C9X       0.108000
     76 H39         -2.6410    -2.2200     2.9530 ha         1 C9X       0.111500
     77 H40         -3.7530    -0.4570     1.6190 ha         1 C9X       0.113500
     78 C27         -1.1380     1.7100     1.0430 c          1 C9X       0.632300
     79 C01          2.4490    -2.0880     3.6910 c3         1 C9X      -0.103900
     80 H3          -6.4280    -3.4400    -2.6480 ha         1 C9X       0.111000
     81 H20          3.4700    -1.7620     3.9200 hc         1 C9X       0.074367
     82 H21          1.9580    -2.3200     4.6430 hc         1 C9X       0.074367
     83 H22          2.5140    -3.0260     3.1280 hc         1 C9X       0.074367
@<TRIPOS>BOND
     1     1    19 1   
     2     1    29 1   
     3     1    44 1   
     4     1    45 1   
     5     2     3 ar  
     6     2    35 ar  
     7     2    80 1   
     8     3     4 ar  
     9     3    46 1   
    10     4     5 1   
    11     4    37 ar  
    12     5    34 1   
    13     5    47 1   
    14     5    48 1   
    15     6     7 1   
    16     6    34 1   
    17     6    49 1   
    18     6    50 1   
    19     7    33 1   
    20     7    51 1   
    21     7    52 1   
    22     8    78 2   
    23     9    32 1   
    24    10    32 1   
    25    11    12 ar  
    26    11    16 ar  
    27    11    53 1   
    28    12    13 ar  
    29    12    32 1   
    30    13    14 ar  
    31    13    54 1   
    32    14    15 ar  
    33    14    55 1   
    34    15    16 ar  
    35    15    56 1   
    36    16    25 1   
    37    17    19 1   
    38    17    31 1   
    39    17    57 1   
    40    17    58 1   
    41    18    19 1   
    42    18    59 1   
    43    18    60 1   
    44    18    61 1   
    45    19    30 1   
    46    20    21 1   
    47    20    26 2   
    48    20    79 1   
    49    21    22 1   
    50    21    62 1   
    51    22    23 1   
    52    22    24 2   
    53    23    63 1   
    54    23    64 1   
    55    23    65 1   
    56    24    25 1   
    57    24    78 1   
    58    25    26 1   
    59    25    66 1   
    60    26    27 1   
    61    27    28 2   
    62    27    29 1   
    63    27    31 1   
    64    30    67 1   
    65    30    68 1   
    66    30    69 1   
    67    33    78 1   
    68    34    38 1   
    69    35    36 ar  
    70    35    70 1   
    71    36    37 ar  
    72    36    71 1   
    73    37    72 1   
    74    38    39 ar  
    75    38    43 ar  
    76    39    40 ar  
    77    39    73 1   
    78    40    41 ar  
    79    40    74 1   
    80    41    42 ar  
    81    41    75 1   
    82    42    43 ar  
    83    42    76 1   
    84    43    77 1   
    85    79    81 1   
    86    79    82 1   
    87    79    83 1   
@<TRIPOS>SUBSTRUCTURE
     1 C9X         1 TEMP              0 ****  ****    0 ROOT
