@<TRIPOS>MOLECULE
C9X
   83    87     1     0     0
SMALL
bcc


@<TRIPOS>ATOM
      1 C12          4.2120    -1.1840    -1.6910 c6         1 C9X       0.174400
      2 C36         -6.8380    -2.4440    -1.5220 ca         1 C9X      -0.129500
      3 C35         -5.7410    -1.5940    -1.4640 ca         1 C9X      -0.117500
      4 C34         -5.6840    -0.5780    -0.5160 ca         1 C9X      -0.097300
      5 C33         -4.5240     0.3920    -0.4710 c3         1 C9X       0.262100
      6 C31         -2.5650     0.5970    -1.9350 c3         1 C9X       0.201800
      7 C30         -1.8040     1.7960    -1.3840 c3         1 C9X       0.105400
      8 O28         -2.0620     1.8610     1.3200 o          1 C9X      -0.563000
      9 O26          2.5680     3.2170    -3.0560 o          1 C9X      -0.218500
     10 O25          3.6580     4.8730    -2.2720 o          1 C9X      -0.218500
     11 C23          2.2070     2.1110    -0.6210 ca         1 C9X      -0.030000
     12 C22          2.9030     3.2980    -0.7930 ca         1 C9X      -0.185200
     13 C21          3.4610     3.9870     0.2750 ca         1 C9X      -0.065000
     14 C20          3.3040     3.4560     1.5440 ca         1 C9X      -0.146000
     15 C19          2.6070     2.2700     1.7300 ca         1 C9X      -0.071000
     16 C18          2.0540     1.5860     0.6530 ca         1 C9X      -0.084300
     17 C16          3.3630    -3.4240    -1.0340 c6         1 C9X       0.174400
     18 C15          4.2220    -3.0470    -3.3240 c3         1 C9X      -0.082100
     19 C13          3.4410    -2.4120    -2.1760 c6         1 C9X      -0.133000
     20 C02          1.8000    -1.0330     2.9160 c2         1 C9X       0.235800
     21 N03          0.7260    -0.4460     3.5300 nu         1 C9X      -0.629800
     22 C04         -0.2250     0.2930     2.8820 c2         1 C9X       0.206800
     23 C05         -1.4090     0.6310     3.7330 c3         1 C9X      -0.067900
     24 C06         -0.0330     0.6290     1.5840 ce         1 C9X      -0.255400
     25 C07          1.2680     0.3030     0.8700 c6         1 C9X       0.149000
     26 C08          2.0850    -0.7260     1.6330 ce         1 C9X      -0.424800
     27 P09          3.4000    -1.5400     0.7640 py         1 C9X       1.478700
     28 O10          4.6590    -1.8320     1.4980 o          1 C9X      -0.810300
     29 O11          3.6120    -0.6020    -0.5260 os         1 C9X      -0.573700
     30 C14          2.0420    -2.0220    -2.6500 c3         1 C9X      -0.082100
     31 O17          2.7270    -2.8640     0.1250 os         1 C9X      -0.573700
     32 N24          3.0540     3.8340    -2.1370 no         1 C9X       0.316200
     33 O29         -0.8050     1.3710    -0.4650 os         1 C9X      -0.423900
     34 N32         -3.2770    -0.1690    -0.9350 nh         1 C9X      -0.685000
     35 C37         -7.8930    -2.2890    -0.6320 ca         1 C9X      -0.127000
     36 C38         -7.8420    -1.2790     0.3190 ca         1 C9X      -0.129500
     37 C39         -6.7420    -0.4330     0.3770 ca         1 C9X      -0.117500
     38 C40         -2.6160    -1.0890    -0.1350 ca         1 C9X       0.186600
     39 C41         -1.4210    -1.7030    -0.5470 ca         1 C9X      -0.191500
     40 C42         -0.7470    -2.5880     0.2740 ca         1 C9X      -0.097000
     41 C43         -1.2380    -2.9210     1.5290 ca         1 C9X      -0.178000
     42 C44         -2.4370    -2.3560     1.9320 ca         1 C9X      -0.097000
     43 C45         -3.1200    -1.4620     1.1210 ca         1 C9X      -0.191500
     44 H1           5.2530    -1.4460    -1.4760 h1         1 C9X       0.062700
     45 H2           4.2160    -0.4030    -2.4520 h1         1 C9X       0.062700
     46 H4          -4.9210    -1.7270    -2.1590 ha         1 C9X       0.133500
     47 H5          -4.7650     1.2390    -1.1180 h1         1 C9X       0.053700
     48 H6          -4.4360     0.8180     0.5350 h1         1 C9X       0.053700
     49 H7          -3.2850     0.9720    -2.6650 h1         1 C9X       0.060200
     50 H8          -1.8900    -0.0450    -2.4990 h1         1 C9X       0.060200
     51 H9          -1.2790     2.2980    -2.1980 h1         1 C9X       0.067700
     52 H10         -2.4810     2.5160    -0.9230 h1         1 C9X       0.067700
     53 H11          1.7860     1.5910    -1.4690 ha         1 C9X       0.169000
     54 H12          4.0040     4.9090     0.1320 ha         1 C9X       0.165000
     55 H13          3.7300     3.9730     2.3940 ha         1 C9X       0.142000
     56 H14          2.4980     1.8760     2.7330 ha         1 C9X       0.140000
     57 H15          2.7640    -4.2870    -1.3270 h1         1 C9X       0.062700
     58 H16          4.3640    -3.7860    -0.7720 h1         1 C9X       0.062700
     59 H17          5.2300    -3.3320    -3.0170 hc         1 C9X       0.043867
     60 H18          3.7150    -3.9450    -3.6820 hc         1 C9X       0.043867
     61 H19          4.3090    -2.3580    -4.1650 hc         1 C9X       0.043867
     62 H24          0.5320    -0.7230     4.4790 hn         1 C9X       0.442800
     63 H25         -1.3240     0.1630     4.7130 hc         1 C9X       0.064700
     64 H26         -1.4970     1.7060     3.8800 hc         1 C9X       0.064700
     65 H27         -2.3310     0.2870     3.2720 hc         1 C9X       0.064700
     66 H28          1.0340    -0.1040    -0.1160 hc         1 C9X       0.074700
     67 H30          2.1000    -1.3130    -3.4780 hc         1 C9X       0.043867
     68 H31          1.4950    -2.8980    -3.0010 hc         1 C9X       0.043867
     69 H32          1.4460    -1.5590    -1.8640 hc         1 C9X       0.043867
     70 H33         -8.7470    -2.9520    -0.6780 ha         1 C9X       0.129000
     71 H34         -8.6550    -1.1520     1.0220 ha         1 C9X       0.129000
     72 H35         -6.7040     0.3480     1.1280 ha         1 C9X       0.133500
     73 H36         -0.9850    -1.4730    -1.5100 ha         1 C9X       0.131500
     74 H37          0.1880    -3.0100    -0.0690 ha         1 C9X       0.129500
     75 H38         -0.6980    -3.6020     2.1740 ha         1 C9X       0.126000
     76 H39         -2.8540    -2.6000     2.9010 ha         1 C9X       0.129500
     77 H40         -4.0440    -1.0460     1.4950 ha         1 C9X       0.131500
     78 C27         -1.0740     1.3410     0.8460 c          1 C9X       0.681300
     79 C01          2.4930    -2.0300     3.7900 c3         1 C9X      -0.103900
     80 H3          -6.8670    -3.2310    -2.2640 ha         1 C9X       0.129000
     81 H20          2.6660    -1.6040     4.7790 hc         1 C9X       0.074367
     82 H21          1.8560    -2.9070     3.9180 hc         1 C9X       0.074367
     83 H22          3.4470    -2.3510     3.3920 hc         1 C9X       0.074367
@<TRIPOS>BOND
     1     1    19 1   
     2     1    29 1   
     3     1    44 1   
     4     1    45 1   
     5     2     3 ar  
     6     2    35 ar  
     7     2    80 1   
     8     3     4 ar  
     9     3    46 1   
    10     4     5 1   
    11     4    37 ar  
    12     5    34 1   
    13     5    47 1   
    14     5    48 1   
    15     6     7 1   
    16     6    34 1   
    17     6    49 1   
    18     6    50 1   
    19     7    33 1   
    20     7    51 1   
    21     7    52 1   
    22     8    78 2   
    23     9    32 1   
    24    10    32 1   
    25    11    12 ar  
    26    11    16 ar  
    27    11    53 1   
    28    12    13 ar  
    29    12    32 1   
    30    13    14 ar  
    31    13    54 1   
    32    14    15 ar  
    33    14    55 1   
    34    15    16 ar  
    35    15    56 1   
    36    16    25 1   
    37    17    19 1   
    38    17    31 1   
    39    17    57 1   
    40    17    58 1   
    41    18    19 1   
    42    18    59 1   
    43    18    60 1   
    44    18    61 1   
    45    19    30 1   
    46    20    21 1   
    47    20    26 2   
    48    20    79 1   
    49    21    22 1   
    50    21    62 1   
    51    22    23 1   
    52    22    24 2   
    53    23    63 1   
    54    23    64 1   
    55    23    65 1   
    56    24    25 1   
    57    24    78 1   
    58    25    26 1   
    59    25    66 1   
    60    26    27 1   
    61    27    28 2   
    62    27    29 1   
    63    27    31 1   
    64    30    67 1   
    65    30    68 1   
    66    30    69 1   
    67    33    78 1   
    68    34    38 1   
    69    35    36 ar  
    70    35    70 1   
    71    36    37 ar  
    72    36    71 1   
    73    37    72 1   
    74    38    39 ar  
    75    38    43 ar  
    76    39    40 ar  
    77    39    73 1   
    78    40    41 ar  
    79    40    74 1   
    80    41    42 ar  
    81    41    75 1   
    82    42    43 ar  
    83    42    76 1   
    84    43    77 1   
    85    79    81 1   
    86    79    82 1   
    87    79    83 1   
@<TRIPOS>SUBSTRUCTURE
     1 C9X         1 TEMP              0 ****  ****    0 ROOT
