@<TRIPOS>MOLECULE
C9Y
   39    42     1     0     0
SMALL
bcc


@<TRIPOS>ATOM
      1 O3          -2.9190     1.5230     0.8650 o          1 C9Y      -0.587500
      2 C4          -3.3260    -1.9690    -0.0090 ca         1 C9Y      -0.063100
      3 C5          -2.5200    -3.0640    -0.3660 ca         1 C9Y      -0.133000
      4 C6          -1.1610    -2.9100    -0.4240 ca         1 C9Y      -0.192300
      5 N1           2.8170    -0.6310    -0.1390 na         1 C9Y       0.154300
      6 C7          -0.6080    -1.6490    -0.1280 ca         1 C9Y       0.341300
      7 C8           0.8330    -1.4310    -0.1810 cc         1 C9Y       0.234300
      8 N2           2.9120    -1.9270    -0.4240 nd         1 C9Y      -0.213800
      9 C9           1.5330    -0.2670     0.0230 cd         1 C9Y      -0.184600
     10 C10          3.9740     0.1720    -0.0450 ca         1 C9Y      -0.003200
     11 C11          3.9660     1.4650    -0.5430 ca         1 C9Y      -0.102000
     12 C12          5.1010     2.2520    -0.4360 ca         1 C9Y      -0.137000
     13 N3           1.7260    -2.4110    -0.4470 nc         1 C9Y      -0.356000
     14 C13          6.2590     1.7570     0.1520 ca         1 C9Y       0.111100
     15 C14          6.2320     0.4480     0.6300 ca         1 C9Y       0.038900
     16 C15          5.1150    -0.3490     0.5510 ca         1 C9Y      -0.107000
     17 N4          -1.3500    -0.6140     0.2060 nb         1 C9Y      -0.612000
     18 N           -4.7980     0.2630     0.7450 n          1 C9Y      -0.299000
     19 C           -5.8420     2.3030    -0.2500 c          1 C9Y       0.929600
     20 C1          -5.6120     1.4350     1.0100 c3         1 C9Y      -0.078000
     21 C16         -2.6730    -0.7600     0.2700 ca         1 C9Y       0.328800
     22 C17         -3.4390     0.4420     0.6420 c          1 C9Y       0.614000
     23 C2          -5.4180    -0.9140     0.4380 cc         1 C9Y       0.075600
     24 C3          -4.7470    -2.0250     0.0770 cd         1 C9Y      -0.284200
     25 F            7.3470    -0.0350     1.2030 f          1 C9Y      -0.149900
     26 O4           7.3410     2.5430     0.2320 oh         1 C9Y      -0.485100
     27 H1          -2.9760    -4.0190    -0.5940 ha         1 C9Y       0.129000
     28 H2          -0.5200    -3.7370    -0.6960 ha         1 C9Y       0.146000
     29 H3           1.2260     0.7320     0.2780 h4         1 C9Y       0.211000
     30 H4           3.0860     1.8650    -1.0270 ha         1 C9Y       0.161000
     31 H5           5.0960     3.2620    -0.8250 ha         1 C9Y       0.157000
     32 H6           5.1370    -1.3530     0.9540 ha         1 C9Y       0.175000
     33 H10         -6.5750     1.0970     1.3960 h1         1 C9Y       0.046700
     34 H11         -5.1480     2.0290     1.7960 h1         1 C9Y       0.046700
     35 H12         -6.4950    -0.9040     0.5180 h4         1 C9Y       0.146000
     36 H13         -5.2840    -2.9360    -0.1430 ha         1 C9Y       0.134000
     37 H14          8.0680     2.1000     0.6860 ho         1 C9Y       0.439000
     38 O1          -6.4510     3.3670    -0.0340 o          1 C9Y      -0.817300
     39 O2          -5.4280     1.8590    -1.3310 o          1 C9Y      -0.817300
@<TRIPOS>BOND
     1     1    22 2   
     2     2     3 ar  
     3     2    21 ar  
     4     2    24 1   
     5     3     4 ar  
     6     3    27 1   
     7     4     6 ar  
     8     4    28 1   
     9     5     8 1   
    10     5     9 1   
    11     5    10 1   
    12     6     7 1   
    13     6    17 ar  
    14     7     9 2   
    15     7    13 1   
    16     8    13 2   
    17     9    29 1   
    18    10    11 ar  
    19    10    16 ar  
    20    11    12 ar  
    21    11    30 1   
    22    12    14 ar  
    23    12    31 1   
    24    14    15 ar  
    25    14    26 1   
    26    15    16 ar  
    27    15    25 1   
    28    16    32 1   
    29    17    21 ar  
    30    18    20 1   
    31    18    22 1   
    32    18    23 1   
    33    19    20 1   
    34    19    38 1   
    35    19    39 1   
    36    20    33 1   
    37    20    34 1   
    38    21    22 1   
    39    23    24 2   
    40    23    35 1   
    41    24    36 1   
    42    26    37 1   
@<TRIPOS>SUBSTRUCTURE
     1 C9Y         1 TEMP              0 ****  ****    0 ROOT
