@<TRIPOS>MOLECULE
C9Y
   39    42     1     0     0
SMALL
No Charge or Current Charge


@<TRIPOS>ATOM
      1 O3          -2.8080     1.5570     0.8050 o          1 C9Y      -0.512000
      2 C4          -3.2400    -1.9800    -0.0090 ca         1 C9Y       0.002200
      3 C5          -2.5190    -3.1310    -0.3630 ca         1 C9Y      -0.115000
      4 C6          -1.1240    -3.0360    -0.4840 ca         1 C9Y      -0.109000
      5 N1           2.9400    -0.9000    -0.3930 na         1 C9Y       0.205000
      6 C7          -0.4810    -1.8000    -0.2500 ca         1 C9Y       0.276000
      7 C8           0.9880    -1.6920    -0.3740 cc         1 C9Y       0.169000
      8 N2           3.0700    -2.2280    -0.6980 nd         1 C9Y      -0.213800
      9 C9           1.6460    -0.5170    -0.1510 cd         1 C9Y      -0.152000
     10 C10          3.9530     0.0360    -0.1770 ca         1 C9Y      -0.003200
     11 C11          3.9590     1.2600    -0.8800 ca         1 C9Y      -0.084000
     12 C12          4.9840     2.1990    -0.6610 ca         1 C9Y      -0.119000
     13 N3           1.8500    -2.7120    -0.7070 nc         1 C9Y      -0.356000
     14 C13          6.0100     1.9230     0.2570 ca         1 C9Y       0.111100
     15 C14          6.0070     0.6980     0.9570 ca         1 C9Y       0.074000
     16 C15          4.9860    -0.2410     0.7410 ca         1 C9Y      -0.089000
     17 N4          -1.1880    -0.6900     0.0920 nb         1 C9Y      -0.612000
     18 N           -4.7650     0.3270     0.7160 n          1 C9Y      -0.232000
     19 C           -5.7290     2.5750    -0.0370 c          1 C9Y       0.719000
     20 C1          -5.5740     1.5250     1.0870 c3         1 C9Y      -0.078000
     21 C16         -2.5470    -0.7720     0.2120 ca         1 C9Y       0.263500
     22 C17         -3.3510     0.4720     0.5980 c          1 C9Y       0.471500
     23 C2          -5.4070    -0.8930     0.4780 cc         1 C9Y       0.025600
     24 C3          -4.6930    -2.0160     0.1300 cd         1 C9Y      -0.334200
     25 F            6.9920     0.4190     1.8430 f          1 C9Y      -0.185000
     26 O4           7.0010     2.8430     0.4610 oh         1 C9Y      -0.524100
     27 H1          -3.0270    -4.0760    -0.5400 ha         1 C9Y       0.111000
     28 H2          -0.5460    -3.9150    -0.7560 ha         1 C9Y       0.128000
     29 H3           1.3200     0.4730     0.1370 h4         1 C9Y       0.193000
     30 H4           3.1720     1.4830    -1.5980 ha         1 C9Y       0.143000
     31 H5           4.9840     3.1410    -1.2050 ha         1 C9Y       0.139000
     32 H6           4.9970    -1.1820     1.2880 ha         1 C9Y       0.157000
     33 H10         -6.5820     1.2150     1.3870 h1         1 C9Y       0.046700
     34 H11         -5.1130     2.0120     1.9560 h1         1 C9Y       0.046700
     35 H12         -6.4860    -0.8440     0.5940 h4         1 C9Y       0.196000
     36 H13         -5.2300    -2.9450    -0.0460 ha         1 C9Y       0.184000
     37 H14          7.6220     2.4790     1.1290 ho         1 C9Y       0.478000
     38 O1          -5.5570     3.7530     0.2450 o          1 C9Y      -0.712000
     39 O2          -6.0350     2.1880    -1.1560 o          1 C9Y      -0.712000
@<TRIPOS>BOND
     1     1    22 2   
     2     2     3 ar  
     3     2    21 ar  
     4     2    24 1   
     5     3     4 ar  
     6     3    27 1   
     7     4     6 ar  
     8     4    28 1   
     9     5     8 1   
    10     5     9 1   
    11     5    10 1   
    12     6     7 1   
    13     6    17 ar  
    14     7     9 2   
    15     7    13 1   
    16     8    13 2   
    17     9    29 1   
    18    10    11 ar  
    19    10    16 ar  
    20    11    12 ar  
    21    11    30 1   
    22    12    14 ar  
    23    12    31 1   
    24    14    15 ar  
    25    14    26 1   
    26    15    16 ar  
    27    15    25 1   
    28    16    32 1   
    29    17    21 ar  
    30    18    20 1   
    31    18    22 1   
    32    18    23 1   
    33    19    20 1   
    34    19    38 1   
    35    19    39 1   
    36    20    33 1   
    37    20    34 1   
    38    21    22 1   
    39    23    24 2   
    40    23    35 1   
    41    24    36 1   
    42    26    37 1   
@<TRIPOS>SUBSTRUCTURE
     1 C9Y         1 TEMP              0 ****  ****    0 ROOT
