@<TRIPOS>MOLECULE
C9Z
   80    86     1     0     0
SMALL
abcg2


@<TRIPOS>ATOM
      1 C13         -3.3630     4.0800     1.5240 c5         1 C9Z       0.180300
      2 C15         -0.4220    -0.5880    -0.0180 c          1 C9Z       0.661700
      3 C20          3.2480     2.4160    -0.1710 ca         1 C9Z       0.370900
      4 C21          4.2570     1.5350     0.1680 ca         1 C9Z      -0.183000
      5 C22          3.9120     0.2040     0.4000 ca         1 C9Z       0.060000
      6 C24          4.9210    -0.7840     0.7830 cc         1 C9Z      -0.190000
      7 C28          6.2000    -1.0320     0.2010 cc         1 C9Z       0.348500
      8 C01         -4.5150     4.7120     0.7090 c5         1 C9Z       0.127300
      9 C03         -5.5140     3.5640     0.5720 c5         1 C9Z       0.142800
     10 C05         -5.1290     1.1430     0.2460 c6         1 C9Z       0.243100
     11 C06         -4.0020     0.1880     0.0070 cc         1 C9Z      -0.116300
     12 C07         -4.0280    -1.1370    -0.4060 cd         1 C9Z      -0.112000
     13 C08         -2.6880    -1.5650    -0.4510 cd         1 C9Z      -0.078000
     14 C09         -1.8850    -0.5080    -0.0840 cc         1 C9Z      -0.265600
     15 C11         -2.3150     1.8870     0.6660 c6         1 C9Z       0.076600
     16 C12         -3.5240     2.5780     1.2560 c5         1 C9Z       0.146500
     17 C18          1.6420     0.8050    -0.0490 ca         1 C9Z       0.480900
     18 C23          2.5810    -0.1740     0.2770 ca         1 C9Z      -0.176000
     19 C25          4.8750    -1.6520     1.8320 cd         1 C9Z       0.219300
     20 C29          6.8240    -0.3970    -0.9650 ca         1 C9Z      -0.160500
     21 C30          8.1910    -0.1220    -0.9650 ca         1 C9Z      -0.052500
     22 C31          8.7950     0.4690    -2.0620 ca         1 C9Z      -0.160000
     23 C32          8.0140     0.7800    -3.1590 ca         1 C9Z       0.184000
     24 C34          6.6580     0.5160    -3.1960 ca         1 C9Z      -0.160000
     25 C35          6.0680    -0.0760    -2.0910 ca         1 C9Z      -0.052500
     26 C36          3.8550    -1.9170     2.8860 c3         1 C9Z      -0.106000
     27 C37          3.1120    -3.2290     2.6120 c3         1 C9Z      -0.088100
     28 C38          4.4680    -1.9030     4.2860 c3         1 C9Z      -0.088100
     29 C39         -5.2020    -1.9380    -0.7640 ca         1 C9Z      -0.033000
     30 C40         -6.4240    -1.8160    -0.0950 ca         1 C9Z      -0.070500
     31 C41         -7.5190    -2.5840    -0.4430 ca         1 C9Z      -0.169500
     32 C42         -7.4270    -3.5190    -1.4750 ca         1 C9Z       0.137100
     33 C44         -8.4890    -5.2000    -2.7700 c3         1 C9Z       0.148900
     34 C45         -6.2150    -3.6640    -2.1470 ca         1 C9Z      -0.169500
     35 C46         -5.1280    -2.8780    -1.7900 ca         1 C9Z      -0.070500
     36 F33          8.5900     1.3590    -4.2210 f          1 C9Z      -0.176000
     37 N04         -4.6060     2.4780     0.2950 n3         1 C9Z      -0.739600
     38 N10         -2.7090     0.5610     0.1990 na         1 C9Z       0.052000
     39 N17          0.2740     0.5780    -0.1660 ns         1 C9Z      -0.329900
     40 N19          1.9730     2.0710    -0.2740 nb         1 C9Z      -0.741000
     41 N27          6.8310    -1.9680     0.8520 nd         1 C9Z      -0.360300
     42 O02         -4.9870     5.8620     1.3510 oh         1 C9Z      -0.655000
     43 O14         -3.5010     4.2970     2.9050 oh         1 C9Z      -0.653000
     44 O16          0.1230    -1.6710     0.1270 o          1 C9Z      -0.577100
     45 O26          6.0100    -2.3480     1.8680 os         1 C9Z      -0.059700
     46 O43         -8.5400    -4.2280    -1.7450 os         1 C9Z      -0.342100
     47 H131        -2.3940     4.4560     1.1670 h1         1 C9Z       0.048700
     48 H201         3.4780     3.4580    -0.3620 h4         1 C9Z       0.021100
     49 H211         5.2770     1.8800     0.2560 ha         1 C9Z       0.134000
     50 H011        -4.1300     4.9390    -0.2930 h1         1 C9Z       0.050700
     51 H031        -6.0840     3.4330     1.5060 h1         1 C9Z       0.054700
     52 H032        -6.2260     3.7010    -0.2450 h1         1 C9Z       0.054700
     53 H052        -5.8640     1.0480    -0.5580 h1         1 C9Z       0.057700
     54 H051        -5.6490     0.8760     1.1840 h1         1 C9Z       0.057700
     55 H081        -2.3360    -2.5460    -0.7290 ha         1 C9Z       0.151000
     56 H112        -1.9440     2.4800    -0.1750 h1         1 C9Z       0.069200
     57 H111        -1.5250     1.7910     1.4100 h1         1 C9Z       0.069200
     58 H121        -3.7890     2.0890     2.2100 h1         1 C9Z       0.072700
     59 H231         2.2870    -1.2010     0.4110 ha         1 C9Z       0.161000
     60 H301         8.7910    -0.3590    -0.0960 ha         1 C9Z       0.130000
     61 H311         9.8540     0.6880    -2.0610 ha         1 C9Z       0.135000
     62 H341         6.0710     0.7650    -4.0700 ha         1 C9Z       0.135000
     63 H351         5.0100    -0.2990    -2.1220 ha         1 C9Z       0.130000
     64 H361         3.1340    -1.0990     2.8220 hc         1 C9Z       0.071700
     65 H373         3.7860    -4.0850     2.6610 hc         1 C9Z       0.046033
     66 H372         2.3310    -3.3720     3.3590 hc         1 C9Z       0.046033
     67 H371         2.6380    -3.2280     1.6310 hc         1 C9Z       0.046033
     68 H381         5.1790    -2.7180     4.4260 hc         1 C9Z       0.046033
     69 H382         4.9810    -0.9630     4.4900 hc         1 C9Z       0.046033
     70 H383         3.6790    -2.0200     5.0290 hc         1 C9Z       0.046033
     71 H401        -6.5240    -1.1270     0.7340 ha         1 C9Z       0.112500
     72 H411        -8.4530    -2.4730     0.0950 ha         1 C9Z       0.121000
     73 H441        -8.2600    -4.7570    -3.7430 h1         1 C9Z       0.040367
     74 H442        -7.7540    -5.9810    -2.5570 h1         1 C9Z       0.040367
     75 H443        -9.4760    -5.6530    -2.8170 h1         1 C9Z       0.040367
     76 H451        -6.0990    -4.3750    -2.9530 ha         1 C9Z       0.121000
     77 H461        -4.2030    -2.9980    -2.3400 ha         1 C9Z       0.112500
     78 H171        -0.2250     1.4070    -0.4480 hn         1 C9Z       0.166000
     79 H021        -5.4940     6.3810     0.7200 ho         1 C9Z       0.456000
     80 H141        -3.5210     5.2470     3.0570 ho         1 C9Z       0.467000
@<TRIPOS>BOND
     1     1     8 1   
     2     1    16 1   
     3     1    43 1   
     4     1    47 1   
     5     2    14 1   
     6     2    39 1   
     7     2    44 2   
     8     3     4 ar  
     9     3    40 ar  
    10     3    48 1   
    11     4     5 ar  
    12     4    49 1   
    13     5     6 1   
    14     5    18 ar  
    15     6     7 1   
    16     6    19 2   
    17     7    20 1   
    18     7    41 2   
    19     8     9 1   
    20     8    42 1   
    21     8    50 1   
    22     9    37 1   
    23     9    51 1   
    24     9    52 1   
    25    10    11 1   
    26    10    37 1   
    27    10    53 1   
    28    10    54 1   
    29    11    12 2   
    30    11    38 1   
    31    12    13 1   
    32    12    29 1   
    33    13    14 2   
    34    13    55 1   
    35    14    38 1   
    36    15    16 1   
    37    15    38 1   
    38    15    56 1   
    39    15    57 1   
    40    16    37 1   
    41    16    58 1   
    42    17    18 ar  
    43    17    39 1   
    44    17    40 ar  
    45    18    59 1   
    46    19    26 1   
    47    19    45 1   
    48    20    21 ar  
    49    20    25 ar  
    50    21    22 ar  
    51    21    60 1   
    52    22    23 ar  
    53    22    61 1   
    54    23    24 ar  
    55    23    36 1   
    56    24    25 ar  
    57    24    62 1   
    58    25    63 1   
    59    26    27 1   
    60    26    28 1   
    61    26    64 1   
    62    27    65 1   
    63    27    66 1   
    64    27    67 1   
    65    28    68 1   
    66    28    69 1   
    67    28    70 1   
    68    29    30 ar  
    69    29    35 ar  
    70    30    31 ar  
    71    30    71 1   
    72    31    32 ar  
    73    31    72 1   
    74    32    34 ar  
    75    32    46 1   
    76    33    46 1   
    77    33    73 1   
    78    33    74 1   
    79    33    75 1   
    80    34    35 ar  
    81    34    76 1   
    82    35    77 1   
    83    39    78 1   
    84    41    45 1   
    85    42    79 1   
    86    43    80 1   
@<TRIPOS>SUBSTRUCTURE
     1 C9Z         1 TEMP              0 ****  ****    0 ROOT
