@<TRIPOS>MOLECULE
C9Z
   80    86     1     0     0
SMALL
No Charge or Current Charge


@<TRIPOS>ATOM
      1 C13         -3.1720     4.5670     0.3510 c5         1 C9Z       0.180300
      2 C15         -0.5150    -0.7300     0.3980 c          1 C9Z       0.661700
      3 C20          3.2200     2.1330     1.2420 ca         1 C9Z       0.370900
      4 C21          4.2590     1.2060     1.0690 ca         1 C9Z      -0.183000
      5 C22          3.9610    -0.1110     0.6780 ca         1 C9Z       0.060000
      6 C24          5.0270    -1.1030     0.4860 cc         1 C9Z      -0.190000
      7 C28          6.3850    -0.9560     0.0920 cc         1 C9Z       0.348500
      8 C01         -4.4200     5.0640    -0.4690 c5         1 C9Z       0.127300
      9 C03         -5.4450     3.9090    -0.2690 c5         1 C9Z       0.142800
     10 C05         -5.1810     1.4120    -0.2060 c6         1 C9Z       0.243100
     11 C06         -4.0950     0.3690    -0.0460 cc         1 C9Z      -0.116300
     12 C07         -4.1780    -1.0070    -0.1490 cd         1 C9Z      -0.112000
     13 C08         -2.8640    -1.5010     0.0410 cd         1 C9Z      -0.078000
     14 C09         -1.9720    -0.4770     0.2230 cc         1 C9Z      -0.265600
     15 C11         -2.2520     2.0930     0.2980 c6         1 C9Z       0.076600
     16 C12         -3.4610     3.0370     0.5610 c5         1 C9Z       0.146500
     17 C18          1.6300     0.5620     0.6800 ca         1 C9Z       0.480900
     18 C23          2.6070    -0.4280     0.4750 ca         1 C9Z      -0.176000
     19 C25          4.9660    -2.3510     1.0450 cd         1 C9Z       0.219300
     20 C29          6.9730     0.1920    -0.6270 ca         1 C9Z      -0.160500
     21 C30          8.3800     0.3530    -0.6750 ca         1 C9Z      -0.052500
     22 C31          8.9580     1.4160    -1.3900 ca         1 C9Z      -0.160000
     23 C32          8.1430     2.3160    -2.0880 ca         1 C9Z       0.184000
     24 C34          6.7530     2.1490    -2.0900 ca         1 C9Z      -0.160000
     25 C35          6.1710     1.0870    -1.3750 ca         1 C9Z      -0.052500
     26 C36          3.9000    -3.0650     1.8590 c3         1 C9Z      -0.106000
     27 C37          3.2330    -4.1930     1.0400 c3         1 C9Z      -0.088100
     28 C38          4.4600    -3.5980     3.1980 c3         1 C9Z      -0.088100
     29 C39         -5.3780    -1.8700    -0.3350 ca         1 C9Z      -0.033000
     30 C40         -6.6970    -1.4120    -0.1070 ca         1 C9Z      -0.070500
     31 C41         -7.8010    -2.2620    -0.2940 ca         1 C9Z      -0.169500
     32 C42         -7.6210    -3.5870    -0.7100 ca         1 C9Z       0.137100
     33 C44         -8.6620    -5.7460    -1.2980 c3         1 C9Z       0.148900
     34 C45         -6.3160    -4.0640    -0.9340 ca         1 C9Z      -0.169500
     35 C46         -5.2120    -3.2140    -0.7440 ca         1 C9Z      -0.070500
     36 F33          8.7000     3.3340    -2.7780 f          1 C9Z      -0.176000
     37 N04         -4.5520     2.7390    -0.4010 n3         1 C9Z      -0.739600
     38 N10         -2.7500     0.6920     0.1850 na         1 C9Z       0.052000
     39 N17          0.2530     0.4010     0.5170 ns         1 C9Z      -0.329900
     40 N19          1.9190     1.8220     1.0510 nb         1 C9Z      -0.741000
     41 N27          7.1000    -2.0520     0.3050 nd         1 C9Z      -0.360300
     42 O02         -4.8920     6.3460    -0.0070 oh         1 C9Z      -0.655000
     43 O14         -3.0950     5.2720     1.5930 oh         1 C9Z      -0.653000
     44 O16         -0.0440    -1.8580     0.4330 o          1 C9Z      -0.577100
     45 O26          6.1810    -2.9670     0.9130 os         1 C9Z      -0.059700
     46 O43         -8.7440    -4.3730    -0.8760 os         1 C9Z      -0.342100
     47 H131        -2.2560     4.7230    -0.2350 h1         1 C9Z       0.048700
     48 H201         3.4340     3.1560     1.5480 h4         1 C9Z       0.021100
     49 H211         5.2820     1.5160     1.2570 ha         1 C9Z       0.134000
     50 H011        -4.1470     5.1260    -1.5320 h1         1 C9Z       0.050700
     51 H031        -5.9220     3.9530     0.7210 h1         1 C9Z       0.054700
     52 H032        -6.2320     3.9190    -1.0360 h1         1 C9Z       0.054700
     53 H052        -5.8310     1.1720    -1.0600 h1         1 C9Z       0.057700
     54 H051        -5.8060     1.4290     0.7000 h1         1 C9Z       0.057700
     55 H081        -2.5840    -2.5510     0.0440 ha         1 C9Z       0.151000
     56 H112        -1.7500     2.3680    -0.6400 h1         1 C9Z       0.069200
     57 H111        -1.5410     2.1830     1.1290 h1         1 C9Z       0.069200
     58 H121        -3.8060     2.8600     1.5910 h1         1 C9Z       0.072700
     59 H231         2.3280    -1.4150     0.1270 ha         1 C9Z       0.161000
     60 H301         9.0330    -0.3350    -0.1410 ha         1 C9Z       0.130000
     61 H311        10.0380     1.5410    -1.4050 ha         1 C9Z       0.135000
     62 H341         6.1270     2.8340    -2.6560 ha         1 C9Z       0.135000
     63 H351         5.0940     0.9520    -1.4380 ha         1 C9Z       0.130000
     64 H361         3.1150    -2.3530     2.1350 hc         1 C9Z       0.071700
     65 H373         3.9620    -4.9690     0.7780 hc         1 C9Z       0.046033
     66 H372         2.4230    -4.6620     1.6120 hc         1 C9Z       0.046033
     67 H371         2.8050    -3.8000     0.1100 hc         1 C9Z       0.046033
     68 H381         5.2210    -4.3710     3.0310 hc         1 C9Z       0.046033
     69 H382         4.9180    -2.7850     3.7760 hc         1 C9Z       0.046033
     70 H383         3.6590    -4.0360     3.8070 hc         1 C9Z       0.046033
     71 H401        -6.8940    -0.4110     0.2510 ha         1 C9Z       0.112500
     72 H411        -8.8060    -1.8900    -0.1070 ha         1 C9Z       0.121000
     73 H441        -8.1890    -5.8240    -2.2850 h1         1 C9Z       0.040367
     74 H442        -8.0820    -6.3410    -0.5810 h1         1 C9Z       0.040367
     75 H443        -9.6660    -6.1830    -1.3660 h1         1 C9Z       0.040367
     76 H451        -6.1360    -5.0850    -1.2570 ha         1 C9Z       0.121000
     77 H461        -4.2220    -3.6120    -0.9460 ha         1 C9Z       0.112500
     78 H171        -0.2510     1.2720     0.4960 hn         1 C9Z       0.166000
     79 H021        -5.5960     6.6360    -0.6320 ho         1 C9Z       0.456000
     80 H141        -3.7450     6.0050     1.4580 ho         1 C9Z       0.467000
@<TRIPOS>BOND
     1     1     8 1   
     2     1    16 1   
     3     1    43 1   
     4     1    47 1   
     5     2    14 1   
     6     2    39 1   
     7     2    44 2   
     8     3     4 ar  
     9     3    40 ar  
    10     3    48 1   
    11     4     5 ar  
    12     4    49 1   
    13     5     6 1   
    14     5    18 ar  
    15     6     7 1   
    16     6    19 2   
    17     7    20 1   
    18     7    41 2   
    19     8     9 1   
    20     8    42 1   
    21     8    50 1   
    22     9    37 1   
    23     9    51 1   
    24     9    52 1   
    25    10    11 1   
    26    10    37 1   
    27    10    53 1   
    28    10    54 1   
    29    11    12 2   
    30    11    38 1   
    31    12    13 1   
    32    12    29 1   
    33    13    14 2   
    34    13    55 1   
    35    14    38 1   
    36    15    16 1   
    37    15    38 1   
    38    15    56 1   
    39    15    57 1   
    40    16    37 1   
    41    16    58 1   
    42    17    18 ar  
    43    17    39 1   
    44    17    40 ar  
    45    18    59 1   
    46    19    26 1   
    47    19    45 1   
    48    20    21 ar  
    49    20    25 ar  
    50    21    22 ar  
    51    21    60 1   
    52    22    23 ar  
    53    22    61 1   
    54    23    24 ar  
    55    23    36 1   
    56    24    25 ar  
    57    24    62 1   
    58    25    63 1   
    59    26    27 1   
    60    26    28 1   
    61    26    64 1   
    62    27    65 1   
    63    27    66 1   
    64    27    67 1   
    65    28    68 1   
    66    28    69 1   
    67    28    70 1   
    68    29    30 ar  
    69    29    35 ar  
    70    30    31 ar  
    71    30    71 1   
    72    31    32 ar  
    73    31    72 1   
    74    32    34 ar  
    75    32    46 1   
    76    33    46 1   
    77    33    73 1   
    78    33    74 1   
    79    33    75 1   
    80    34    35 ar  
    81    34    76 1   
    82    35    77 1   
    83    39    78 1   
    84    41    45 1   
    85    42    79 1   
    86    43    80 1   
@<TRIPOS>SUBSTRUCTURE
     1 C9Z         1 TEMP              0 ****  ****    0 ROOT
