@<TRIPOS>MOLECULE
CA1
   17    16     1     0     0
SMALL
No Charge or Current Charge


@<TRIPOS>ATOM
      1 CX5         -2.6070    -0.3150     0.5630 c3         1 CA1      -0.081100
      2 CX6         -1.7370    -0.6580    -0.6660 c3         1 CA1      -0.138400
      3 CX7         -0.5170     0.2610    -0.7610 c          1 CA1       0.591100
      4 OX8         -0.5390     1.3670    -1.2840 o          1 CA1      -0.491000
      5 OX9          0.5830    -0.2900    -0.1560 os         1 CA1      -0.456100
      6 CJ1          1.8030     0.4720    -0.1510 c3         1 CA1       0.167600
      7 CJ2          2.8650    -0.3630     0.5810 c3         1 CA1      -0.097100
      8 H1          -3.4730    -0.9860     0.6210 hc         1 CA1       0.043367
      9 HX51        -2.0290    -0.4200     1.4900 hc         1 CA1       0.043367
     10 HX52        -2.9770     0.7160     0.5020 hc         1 CA1       0.043367
     11 H2          -2.3450    -0.5500    -1.5720 hc         1 CA1       0.069200
     12 H3          -1.4010    -1.6950    -0.5480 hc         1 CA1       0.069200
     13 H4           1.6660     1.4290     0.3710 h1         1 CA1       0.047700
     14 H5           2.1410     0.6780    -1.1760 h1         1 CA1       0.047700
     15 H6           2.5520    -0.5680     1.6120 hc         1 CA1       0.046033
     16 H7           3.0270    -1.3180     0.0670 hc         1 CA1       0.046033
     17 H8           3.8180     0.1780     0.6120 hc         1 CA1       0.046033
@<TRIPOS>BOND
     1     1     2 1   
     2     1     8 1   
     3     1     9 1   
     4     1    10 1   
     5     2     3 1   
     6     2    11 1   
     7     2    12 1   
     8     3     4 2   
     9     3     5 1   
    10     5     6 1   
    11     6     7 1   
    12     6    13 1   
    13     6    14 1   
    14     7    15 1   
    15     7    16 1   
    16     7    17 1   
@<TRIPOS>SUBSTRUCTURE
     1 CA1         1 TEMP              0 ****  ****    0 ROOT
