@<TRIPOS>MOLECULE
CA1
   17    16     1     0     0
SMALL
abcg2


@<TRIPOS>ATOM
      1 CX5         -2.9880    -0.1500     0.0060 c3         1 CA1      -0.081100
      2 CX6         -1.6060    -0.7770    -0.0160 c3         1 CA1      -0.138400
      3 CX7         -0.4910     0.2340    -0.0090 c          1 CA1       0.591100
      4 OX8         -0.6420     1.4310    -0.0210 o          1 CA1      -0.491000
      5 OX9          0.6990    -0.3520     0.0080 os         1 CA1      -0.456100
      6 CJ1          1.8680     0.4830     0.0120 c3         1 CA1       0.167600
      7 CJ2          3.0770    -0.4210     0.0300 c3         1 CA1      -0.097100
      8 H1          -3.7500    -0.9280    -0.0040 hc         1 CA1       0.043367
      9 HX51        -3.1410     0.4530     0.9010 hc         1 CA1       0.043367
     10 HX52        -3.1550     0.4880    -0.8610 hc         1 CA1       0.043367
     11 H2          -1.4830    -1.4120    -0.8980 hc         1 CA1       0.069200
     12 H3          -1.4700    -1.4430     0.8410 hc         1 CA1       0.069200
     13 H4           1.8540     1.1330     0.8890 h1         1 CA1       0.047700
     14 H5           1.8700     1.1190    -0.8760 h1         1 CA1       0.047700
     15 H6           3.0930    -1.0490     0.9210 hc         1 CA1       0.046033
     16 H7           3.1120    -1.0610    -0.8510 hc         1 CA1       0.046033
     17 H8           3.9810     0.1880     0.0350 hc         1 CA1       0.046033
@<TRIPOS>BOND
     1     1     2 1   
     2     1     8 1   
     3     1     9 1   
     4     1    10 1   
     5     2     3 1   
     6     2    11 1   
     7     2    12 1   
     8     3     4 2   
     9     3     5 1   
    10     5     6 1   
    11     6     7 1   
    12     6    13 1   
    13     6    14 1   
    14     7    15 1   
    15     7    16 1   
    16     7    17 1   
@<TRIPOS>SUBSTRUCTURE
     1 CA1         1 TEMP              0 ****  ****    0 ROOT
