@<TRIPOS>MOLECULE
CA2
   43    44     1     0     0
SMALL
abcg2


@<TRIPOS>ATOM
      1 O2           3.7130    -2.4340    -1.6110 o          1 CA2      -0.711500
      2 C7           3.7290    -2.2800    -0.3820 c          1 CA2       0.697000
      3 O1           4.0440    -3.1320     0.4840 o          1 CA2      -0.711500
      4 C1           3.3220    -0.8980     0.1910 c6         1 CA2       0.035000
      5 O3           3.4200    -0.9630     1.5970 oh         1 CA2      -0.715000
      6 C2           1.8850    -0.5640    -0.2180 c6         1 CA2      -0.068400
      7 C3           1.4320     0.8160     0.2630 c6         1 CA2      -0.052700
      8 C4           2.4000     1.8780    -0.2560 c6         1 CA2       0.181300
      9 O4           2.0050     3.1390     0.2380 oh         1 CA2      -0.681000
     10 C5           3.8360     1.5640     0.1480 c6         1 CA2       0.130300
     11 O5           4.6460     2.5930    -0.4000 oh         1 CA2      -0.697000
     12 C6           4.2560     0.1890    -0.3460 c6         1 CA2      -0.091400
     13 C8          -0.0020     1.1250    -0.1750 c3         1 CA2      -0.064400
     14 C9          -1.0410     0.1490     0.3680 c3         1 CA2      -0.082400
     15 C10         -2.4390     0.5610    -0.0420 c3         1 CA2       0.161600
     16 O11         -3.3490    -0.4220     0.4260 os         1 CA2      -0.345100
     17 C12         -4.6550    -0.3040     0.1220 ca         1 CA2       0.160100
     18 C17         -5.4870    -1.3380     0.5610 ca         1 CA2      -0.176500
     19 C16         -6.8440    -1.3010     0.2920 ca         1 CA2      -0.077000
     20 C15         -7.3990    -0.2400    -0.4170 ca         1 CA2      -0.162000
     21 C14         -6.5710     0.7830    -0.8500 ca         1 CA2      -0.077000
     22 C13         -5.2050     0.7620    -0.5880 ca         1 CA2      -0.176500
     23 H3           3.7050    -1.8880     1.7340 ho         1 CA2       0.479000
     24 H2C1         1.8060    -0.6090    -1.3090 hc         1 CA2       0.048700
     25 H2C2         1.2180    -1.3350     0.1760 hc         1 CA2       0.048700
     26 HA           1.4690     0.8310     1.3590 hc         1 CA2       0.066700
     27 H4           2.3520     1.8650    -1.3600 h1         1 CA2       0.033700
     28 HB           2.6830     3.7750    -0.0150 ho         1 CA2       0.446000
     29 H5           3.8910     1.5870     1.2460 h1         1 CA2       0.049700
     30 HC           5.5150     2.5470     0.0090 ho         1 CA2       0.439000
     31 H6C1         4.2360     0.1730    -1.4390 hc         1 CA2       0.051200
     32 H6C2         5.2870    -0.0160    -0.0400 hc         1 CA2       0.051200
     33 H8C1        -0.2670     2.1350     0.1480 hc         1 CA2       0.035700
     34 H8C2        -0.0480     1.1310    -1.2710 hc         1 CA2       0.035700
     35 H9C1        -0.8510    -0.8600    -0.0040 hc         1 CA2       0.060700
     36 H9C2        -0.9720     0.1060     1.4590 hc         1 CA2       0.060700
     37 H101        -2.6890     1.5430     0.3780 h1         1 CA2       0.029700
     38 H102        -2.5010     0.6450    -1.1340 h1         1 CA2       0.029700
     39 H17         -5.0590    -2.1680     1.1090 ha         1 CA2       0.122500
     40 H16         -7.4740    -2.1110     0.6390 ha         1 CA2       0.104500
     41 H15         -8.4600    -0.2150    -0.6280 ha         1 CA2       0.106000
     42 H14         -6.9840     1.6180    -1.4010 ha         1 CA2       0.104500
     43 H13         -4.5930     1.5800    -0.9430 ha         1 CA2       0.122500
@<TRIPOS>BOND
     1     1     2 1   
     2     2     3 1   
     3     2     4 1   
     4     4     5 1   
     5     4     6 1   
     6     4    12 1   
     7     5    23 1   
     8     6     7 1   
     9     6    24 1   
    10     6    25 1   
    11     7     8 1   
    12     7    13 1   
    13     7    26 1   
    14     8     9 1   
    15     8    10 1   
    16     8    27 1   
    17     9    28 1   
    18    10    11 1   
    19    10    12 1   
    20    10    29 1   
    21    11    30 1   
    22    12    31 1   
    23    12    32 1   
    24    13    14 1   
    25    13    33 1   
    26    13    34 1   
    27    14    15 1   
    28    14    35 1   
    29    14    36 1   
    30    15    16 1   
    31    15    37 1   
    32    15    38 1   
    33    16    17 1   
    34    17    18 ar  
    35    17    22 ar  
    36    18    19 ar  
    37    18    39 1   
    38    19    20 ar  
    39    19    40 1   
    40    20    21 ar  
    41    20    41 1   
    42    21    22 ar  
    43    21    42 1   
    44    22    43 1   
@<TRIPOS>SUBSTRUCTURE
     1 CA2         1 TEMP              0 ****  ****    0 ROOT
