@<TRIPOS>MOLECULE
CA2
   43    44     1     0     0
SMALL
No Charge or Current Charge


@<TRIPOS>ATOM
      1 O2           5.0120    -2.4230    -0.8960 o          1 CA2      -0.711500
      2 C7           3.8620    -2.2990    -0.4930 c          1 CA2       0.697000
      3 O1           3.2330    -3.2780    -0.1070 o          1 CA2      -0.711500
      4 C1           3.4450    -0.9050     0.1630 c6         1 CA2       0.035000
      5 O3           3.4900    -0.9960     1.6130 oh         1 CA2      -0.715000
      6 C2           1.9840    -0.5640    -0.2870 c6         1 CA2      -0.068400
      7 C3           1.4710     0.8340     0.1900 c6         1 CA2      -0.052700
      8 C4           2.4600     1.9450    -0.2780 c6         1 CA2       0.181300
      9 O4           2.0780     3.2380     0.2130 oh         1 CA2      -0.681000
     10 C5           3.9120     1.6430     0.1990 c6         1 CA2       0.130300
     11 O5           4.8110     2.6700    -0.2590 oh         1 CA2      -0.697000
     12 C6           4.3770     0.2590    -0.3150 c6         1 CA2      -0.091400
     13 C8           0.0100     1.1180    -0.3020 c3         1 CA2      -0.064400
     14 C9          -1.0760     0.1390     0.2080 c3         1 CA2      -0.082400
     15 C10         -2.5000     0.5580    -0.2040 c3         1 CA2       0.161600
     16 O11         -3.4120    -0.4210     0.3190 os         1 CA2      -0.345100
     17 C12         -4.7750    -0.3340     0.1220 ca         1 CA2       0.160100
     18 C17         -5.5830    -1.3430     0.6730 ca         1 CA2      -0.176500
     19 C16         -6.9780    -1.3090     0.5060 ca         1 CA2      -0.077000
     20 C15         -7.5710    -0.2600    -0.2170 ca         1 CA2      -0.162000
     21 C14         -6.7710     0.7530    -0.7720 ca         1 CA2      -0.077000
     22 C13         -5.3750     0.7190    -0.6050 ca         1 CA2      -0.176500
     23 H3           3.2530    -1.9290     1.8260 ho         1 CA2       0.479000
     24 H2C1         1.9250    -0.6140    -1.3830 hc         1 CA2       0.048700
     25 H2C2         1.3130    -1.3500     0.0840 hc         1 CA2       0.048700
     26 HA           1.4360     0.8420     1.2890 hc         1 CA2       0.066700
     27 H4           2.4610     1.9590    -1.3790 h1         1 CA2       0.033700
     28 HB           2.9090     3.7630     0.1580 ho         1 CA2       0.446000
     29 H5           3.9140     1.6200     1.3000 h1         1 CA2       0.049700
     30 HC           5.7080     2.4230     0.0600 ho         1 CA2       0.439000
     31 H6C1         4.4160     0.2720    -1.4130 hc         1 CA2       0.051200
     32 H6C2         5.4040     0.0720     0.0280 hc         1 CA2       0.051200
     33 H8C1        -0.2890     2.1260     0.0110 hc         1 CA2       0.035700
     34 H8C2        -0.0130     1.1240    -1.3990 hc         1 CA2       0.035700
     35 H9C1        -0.8860    -0.8670    -0.1850 hc         1 CA2       0.060700
     36 H9C2        -1.0250     0.0780     1.3020 hc         1 CA2       0.060700
     37 H101        -2.7230     1.5530     0.2050 h1         1 CA2       0.029700
     38 H102        -2.5660     0.6040    -1.2990 h1         1 CA2       0.029700
     39 H17         -5.1240    -2.1540     1.2330 ha         1 CA2       0.122500
     40 H16         -7.5980    -2.0930     0.9360 ha         1 CA2       0.104500
     41 H15         -8.6500    -0.2320    -0.3470 ha         1 CA2       0.106000
     42 H14         -7.2320     1.5640    -1.3320 ha         1 CA2       0.104500
     43 H13         -4.7780     1.5130    -1.0440 ha         1 CA2       0.122500
@<TRIPOS>BOND
     1     1     2 1   
     2     2     3 1   
     3     2     4 1   
     4     4     5 1   
     5     4     6 1   
     6     4    12 1   
     7     5    23 1   
     8     6     7 1   
     9     6    24 1   
    10     6    25 1   
    11     7     8 1   
    12     7    13 1   
    13     7    26 1   
    14     8     9 1   
    15     8    10 1   
    16     8    27 1   
    17     9    28 1   
    18    10    11 1   
    19    10    12 1   
    20    10    29 1   
    21    11    30 1   
    22    12    31 1   
    23    12    32 1   
    24    13    14 1   
    25    13    33 1   
    26    13    34 1   
    27    14    15 1   
    28    14    35 1   
    29    14    36 1   
    30    15    16 1   
    31    15    37 1   
    32    15    38 1   
    33    16    17 1   
    34    17    18 ar  
    35    17    22 ar  
    36    18    19 ar  
    37    18    39 1   
    38    19    20 ar  
    39    19    40 1   
    40    20    21 ar  
    41    20    41 1   
    42    21    22 ar  
    43    21    42 1   
    44    22    43 1   
@<TRIPOS>SUBSTRUCTURE
     1 CA2         1 TEMP              0 ****  ****    0 ROOT
