@<TRIPOS>MOLECULE
CA4
   58    62     1     0     0
SMALL
No Charge or Current Charge


@<TRIPOS>ATOM
      1 C4           0.2330    -1.0070    -4.5020 ce         1 CA4      -0.281200
      2 C14         -0.1120    -2.6120     0.9560 c5         1 CA4      -0.060700
      3 C5           0.4630    -1.2950    -3.1830 cf         1 CA4      -0.015200
      4 C6           0.0240    -0.3980    -2.0940 cf         1 CA4       0.091000
      5 C11          1.1660    -4.5110    -0.9320 c6         1 CA4      -0.069400
      6 C7           0.0940    -0.7430    -0.7870 c2         1 CA4      -0.174200
      7 C8           0.6460    -2.0680    -0.2870 c6         1 CA4      -0.021500
      8 C9           0.5960    -3.1360    -1.4250 c6         1 CA4      -0.046700
      9 C10          1.2360    -2.5830    -2.7490 c6         1 CA4       0.019200
     10 C12          0.4370    -5.0160     0.3490 c6         1 CA4      -0.061400
     11 C13          0.4730    -3.9590     1.5040 c5         1 CA4      -0.030000
     12 C3           0.5560    -1.8830    -5.6510 c          1 CA4       0.599300
     13 C19          2.7290    -2.1540    -2.5780 c3         1 CA4      -0.082100
     14 C1           1.2030    -3.6630    -3.8640 cx         1 CA4      -0.093700
     15 C22         -0.0770    -4.1120    -4.5270 cx         1 CA4      -0.099400
     16 C2           0.9410    -3.2950    -5.3050 cx         1 CA4      -0.241700
     17 O3           0.4520    -1.5070    -6.8090 o          1 CA4      -0.515100
     18 Cl6         -0.6370     1.1790    -2.4590 cl         1 CA4      -0.198000
     19 C18          1.9590    -3.8670     2.0140 c3         1 CA4      -0.094100
     20 C15         -0.1570    -1.7340     2.2340 c5         1 CA4      -0.071400
     21 C16         -0.6700    -2.7300     3.3300 c5         1 CA4      -0.087400
     22 C17         -0.5420    -4.1820     2.7040 c5         1 CA4       0.090000
     23 C20          0.0050    -5.2450     3.7450 c          1 CA4       0.583100
     24 C21          0.0040    -6.7150     3.3060 c3         1 CA4      -0.194100
     25 O20          0.4250    -4.9730     4.8650 o          1 CA4      -0.504100
     26 O17         -1.8450    -4.5630     2.1380 os         1 CA4      -0.447100
     27 C23         -2.8390    -4.8850     3.0330 c          1 CA4       0.590100
     28 C24         -4.1410    -5.2040     2.3160 c3         1 CA4      -0.156100
     29 O23         -2.7080    -4.9320     4.2470 o          1 CA4      -0.479000
     30 H4          -0.2470    -0.0760    -4.7860 ha         1 CA4       0.214000
     31 H14         -1.1380    -2.7510     0.5890 hc         1 CA4       0.065700
     32 H111         2.2460    -4.4400    -0.7530 hc         1 CA4       0.044700
     33 H112         1.0400    -5.2750    -1.7090 hc         1 CA4       0.044700
     34 H7          -0.2450    -0.0310    -0.0350 ha         1 CA4       0.197000
     35 H8           1.6890    -1.8890     0.0010 hc         1 CA4       0.070700
     36 H9          -0.4650    -3.3070    -1.6570 hc         1 CA4       0.057700
     37 H121        -0.6010    -5.2520     0.0800 hc         1 CA4       0.049700
     38 H122         0.8860    -5.9630     0.6730 hc         1 CA4       0.049700
     39 H191         3.1530    -1.8270    -3.5350 hc         1 CA4       0.043033
     40 H192         2.8460    -1.3160    -1.8810 hc         1 CA4       0.043033
     41 H193         3.3530    -2.9790    -2.2140 hc         1 CA4       0.043033
     42 H1           1.9450    -4.4430    -3.7050 hc         1 CA4       0.086700
     43 H221        -1.0050    -3.6320    -4.2240 hc         1 CA4       0.081200
     44 H222        -0.1760    -5.1670    -4.7710 hc         1 CA4       0.081200
     45 H2           1.5250    -3.8130    -6.0600 hc         1 CA4       0.108700
     46 H181         2.6440    -3.4620     1.2630 hc         1 CA4       0.043367
     47 H182         2.0630    -3.2370     2.9050 hc         1 CA4       0.043367
     48 H183         2.3470    -4.8560     2.2860 hc         1 CA4       0.043367
     49 H151        -0.8320    -0.8780     2.1230 hc         1 CA4       0.048200
     50 H152         0.8280    -1.3240     2.4850 hc         1 CA4       0.048200
     51 H161        -0.0700    -2.6230     4.2390 hc         1 CA4       0.071200
     52 H162        -1.6990    -2.4920     3.6220 hc         1 CA4       0.071200
     53 H211        -0.7290    -6.9000     2.5130 hc         1 CA4       0.063367
     54 H212         0.9780    -6.9350     2.8560 hc         1 CA4       0.063367
     55 H213        -0.1320    -7.3870     4.1610 hc         1 CA4       0.063367
     56 H241        -3.9530    -5.9890     1.5760 hc         1 CA4       0.071367
     57 H242        -4.4120    -4.3510     1.6840 hc         1 CA4       0.071367
     58 H243        -4.9480    -5.4750     3.0050 hc         1 CA4       0.071367
@<TRIPOS>BOND
     1     1     3 2   
     2     1    12 1   
     3     1    30 1   
     4     2     7 1   
     5     2    11 1   
     6     2    20 1   
     7     2    31 1   
     8     3     4 1   
     9     3     9 1   
    10     4     6 2   
    11     4    18 1   
    12     5     8 1   
    13     5    10 1   
    14     5    32 1   
    15     5    33 1   
    16     6     7 1   
    17     6    34 1   
    18     7     8 1   
    19     7    35 1   
    20     8     9 1   
    21     8    36 1   
    22     9    13 1   
    23     9    14 1   
    24    10    11 1   
    25    10    37 1   
    26    10    38 1   
    27    11    19 1   
    28    11    22 1   
    29    12    16 1   
    30    12    17 2   
    31    13    39 1   
    32    13    40 1   
    33    13    41 1   
    34    14    15 1   
    35    14    16 1   
    36    14    42 1   
    37    15    16 1   
    38    15    43 1   
    39    15    44 1   
    40    16    45 1   
    41    19    46 1   
    42    19    47 1   
    43    19    48 1   
    44    20    21 1   
    45    20    49 1   
    46    20    50 1   
    47    21    22 1   
    48    21    51 1   
    49    21    52 1   
    50    22    23 1   
    51    22    26 1   
    52    23    24 1   
    53    23    25 2   
    54    24    53 1   
    55    24    54 1   
    56    24    55 1   
    57    26    27 1   
    58    27    28 1   
    59    27    29 2   
    60    28    56 1   
    61    28    57 1   
    62    28    58 1   
@<TRIPOS>SUBSTRUCTURE
     1 CA4         1 TEMP              0 ****  ****    0 ROOT
