@<TRIPOS>MOLECULE
CA4
   58    62     1     0     0
SMALL
bcc


@<TRIPOS>ATOM
      1 C4           0.2790    -1.0440    -4.4410 ce         1 CA4      -0.231200
      2 C14         -0.1580    -2.6090     0.9150 c5         1 CA4      -0.060700
      3 C5           0.4530    -1.3550    -3.1450 cf         1 CA4      -0.015200
      4 C6           0.0210    -0.4680    -2.0680 cf         1 CA4       0.015400
      5 C11          1.0870    -4.4890    -0.9350 c6         1 CA4      -0.069400
      6 C7           0.1000    -0.7760    -0.7720 c2         1 CA4      -0.124200
      7 C8           0.6150    -2.0900    -0.2910 c6         1 CA4      -0.021500
      8 C9           0.5520    -3.1370    -1.4070 c6         1 CA4      -0.046700
      9 C10          1.2020    -2.6020    -2.7030 c6         1 CA4       0.019200
     10 C12          0.3740    -4.9870     0.3300 c6         1 CA4      -0.061400
     11 C13          0.4260    -3.9360     1.4380 c5         1 CA4      -0.030000
     12 C3           0.7140    -1.9080    -5.5430 c          1 CA4       0.599300
     13 C19          2.6720    -2.2000    -2.4930 c3         1 CA4      -0.082100
     14 C1           1.1620    -3.6810    -3.7670 cx         1 CA4      -0.093700
     15 C22         -0.0930    -4.0670    -4.4490 cx         1 CA4      -0.099400
     16 C2           0.9820    -3.3160    -5.2160 cx         1 CA4      -0.241700
     17 O3           0.8280    -1.4710    -6.6770 o          1 CA4      -0.515100
     18 CL6         -0.6220     1.0920    -2.5100 cl         1 CA4      -0.122400
     19 C18          1.8750    -3.7730     1.9190 c3         1 CA4      -0.094100
     20 C15         -0.2650    -1.7380     2.1620 c5         1 CA4      -0.071400
     21 C16         -0.5790    -2.7360     3.2980 c5         1 CA4      -0.087400
     22 C17         -0.4860    -4.1490     2.6870 c5         1 CA4       0.066800
     23 C20          0.0600    -5.2240     3.6320 c          1 CA4       0.583100
     24 C21         -0.0730    -6.6700     3.2220 c3         1 CA4      -0.194100
     25 O20          0.6770    -4.9230     4.6260 o          1 CA4      -0.504100
     26 O17         -1.7640    -4.5530     2.1740 os         1 CA4      -0.423900
     27 C23         -2.7120    -4.9310     3.0290 c          1 CA4       0.639100
     28 C24         -4.0030    -5.2150     2.3280 c3         1 CA4      -0.156100
     29 O23         -2.5190    -5.0330     4.2150 o          1 CA4      -0.528000
     30 H4          -0.1700    -0.1030    -4.7340 ha         1 CA4       0.164000
     31 H14         -1.1760    -2.8130     0.5620 hc         1 CA4       0.065700
     32 H111         2.1650    -4.4370    -0.7630 hc         1 CA4       0.044700
     33 H112         0.9400    -5.2370    -1.7160 hc         1 CA4       0.044700
     34 H7          -0.2050    -0.0460    -0.0310 ha         1 CA4       0.147000
     35 H8           1.6580    -1.9250     0.0130 hc         1 CA4       0.070700
     36 H9          -0.5140    -3.2820    -1.6340 hc         1 CA4       0.057700
     37 H121        -0.6610    -5.2200     0.0730 hc         1 CA4       0.049700
     38 H122         0.8400    -5.9230     0.6480 hc         1 CA4       0.049700
     39 H191         3.1120    -1.8790    -3.4370 hc         1 CA4       0.043033
     40 H192         2.7850    -1.3830    -1.7810 hc         1 CA4       0.043033
     41 H193         3.2570    -3.0460    -2.1290 hc         1 CA4       0.043033
     42 H1           1.8790    -4.4770    -3.6000 hc         1 CA4       0.086700
     43 H221        -1.0060    -3.5330    -4.2170 hc         1 CA4       0.081200
     44 H222        -0.2350    -5.1050    -4.7180 hc         1 CA4       0.081200
     45 H2           1.5350    -3.8740    -5.9620 hc         1 CA4       0.108700
     46 H181         2.5220    -3.4230     1.1170 hc         1 CA4       0.043367
     47 H182         1.9810    -3.0650     2.7400 hc         1 CA4       0.043367
     48 H183         2.2890    -4.7270     2.2490 hc         1 CA4       0.043367
     49 H151        -1.0400    -0.9780     2.0670 hc         1 CA4       0.048200
     50 H152         0.6740    -1.2130     2.3540 hc         1 CA4       0.048200
     51 H161         0.1330    -2.6370     4.1140 hc         1 CA4       0.071200
     52 H162        -1.5640    -2.5610     3.7300 hc         1 CA4       0.071200
     53 H211        -0.7710    -6.8560     2.4100 hc         1 CA4       0.063367
     54 H212         0.9100    -7.0190     2.8980 hc         1 CA4       0.063367
     55 H213        -0.3600    -7.2710     4.0830 hc         1 CA4       0.063367
     56 H241        -3.8530    -5.9410     1.5290 hc         1 CA4       0.071367
     57 H242        -4.3880    -4.3040     1.8680 hc         1 CA4       0.071367
     58 H243        -4.7400    -5.5980     3.0270 hc         1 CA4       0.071367
@<TRIPOS>BOND
     1     1     3 2   
     2     1    12 1   
     3     1    30 1   
     4     2     7 1   
     5     2    11 1   
     6     2    20 1   
     7     2    31 1   
     8     3     4 1   
     9     3     9 1   
    10     4     6 2   
    11     4    18 1   
    12     5     8 1   
    13     5    10 1   
    14     5    32 1   
    15     5    33 1   
    16     6     7 1   
    17     6    34 1   
    18     7     8 1   
    19     7    35 1   
    20     8     9 1   
    21     8    36 1   
    22     9    13 1   
    23     9    14 1   
    24    10    11 1   
    25    10    37 1   
    26    10    38 1   
    27    11    19 1   
    28    11    22 1   
    29    12    16 1   
    30    12    17 2   
    31    13    39 1   
    32    13    40 1   
    33    13    41 1   
    34    14    15 1   
    35    14    16 1   
    36    14    42 1   
    37    15    16 1   
    38    15    43 1   
    39    15    44 1   
    40    16    45 1   
    41    19    46 1   
    42    19    47 1   
    43    19    48 1   
    44    20    21 1   
    45    20    49 1   
    46    20    50 1   
    47    21    22 1   
    48    21    51 1   
    49    21    52 1   
    50    22    23 1   
    51    22    26 1   
    52    23    24 1   
    53    23    25 2   
    54    24    53 1   
    55    24    54 1   
    56    24    55 1   
    57    26    27 1   
    58    27    28 1   
    59    27    29 2   
    60    28    56 1   
    61    28    57 1   
    62    28    58 1   
@<TRIPOS>SUBSTRUCTURE
     1 CA4         1 TEMP              0 ****  ****    0 ROOT
