@<TRIPOS>MOLECULE
CA7
   82    84     1     0     0
SMALL
bcc


@<TRIPOS>ATOM
      1 C1          -5.7940     0.2480    -0.9880 c6         1 CA7       0.317900
      2 O1          -4.7440     0.3000    -0.0620 os         1 CA7      -0.451600
      3 C2          -6.9650     1.0680    -0.4420 c6         1 CA7       0.095100
      4 O2          -6.6410     2.4160    -0.2350 oh         1 CA7      -0.604800
      5 C3          -7.5150     0.3990     0.8150 c6         1 CA7       0.084100
      6 O3          -8.6730     1.0510     1.2840 oh         1 CA7      -0.604800
      7 C4          -7.8970    -1.0420     0.4990 c6         1 CA7       0.127100
      8 O4          -8.2890    -1.7430     1.6550 oh         1 CA7      -0.596800
      9 C5          -6.7020    -1.7760    -0.1080 c6         1 CA7       0.146100
     10 O5          -6.1980    -1.0630    -1.2290 os         1 CA7      -0.407600
     11 C6          -7.0810    -3.1580    -0.6000 c3         1 CA7       0.145400
     12 O6          -5.9190    -3.8210    -1.0390 oh         1 CA7      -0.596800
     13 OAB         -1.9260    -2.7680    -0.9620 oh         1 CA7      -0.591800
     14 OAF         -1.1200     3.1380     0.9630 oh         1 CA7      -0.603800
     15 OAG         -3.8150     2.9020     0.0910 oh         1 CA7      -0.606800
     16 CAH          5.4660     0.3590     0.0330 c3         1 CA7      -0.074400
     17 CAI          4.0950    -0.0810     0.5300 c3         1 CA7      -0.073400
     18 CAJ          6.6200    -0.4080     0.6640 c3         1 CA7      -0.074400
     19 CAK         13.3530     0.1730    -0.1050 c6         1 CA7      -0.074400
     20 CAL          2.9650     0.7440    -0.0750 c3         1 CA7      -0.081400
     21 CAM          7.9770     0.0040     0.1040 c3         1 CA7      -0.074400
     22 CAN         12.9090    -1.2850    -0.0460 c6         1 CA7      -0.073900
     23 CAO         12.2790     1.0430    -0.7480 c6         1 CA7      -0.073900
     24 CAP          1.6030     0.2700     0.3840 c3         1 CA7       0.142400
     25 CAS          9.1440    -0.7410     0.7430 c3         1 CA7      -0.070400
     26 CAT         11.5670    -1.4270     0.6650 c6         1 CA7      -0.070900
     27 CAU         10.9370     0.8930    -0.0360 c6         1 CA7      -0.070900
     28 OAV         -1.1700    -0.1280    -0.6380 os         1 CA7      -0.418600
     29 OAX          0.6180     1.1550    -0.1310 os         1 CA7      -0.410600
     30 CAZ         10.4800    -0.5660     0.0220 c6         1 CA7      -0.059700
     31 CBB         -2.4810    -0.5510    -0.3260 c6         1 CA7       0.140100
     32 CBF         -1.5150     2.1350     0.0620 c6         1 CA7       0.090100
     33 CBG         -2.9700     1.8050     0.3550 c6         1 CA7       0.140100
     34 CBH         -0.6800     0.8680     0.2230 c6         1 CA7       0.318900
     35 CBJ         -3.4440     0.6320    -0.4960 c6         1 CA7       0.132100
     36 H1          -5.4700     0.6470    -1.9560 h2         1 CA7       0.084700
     37 H2          -7.7510     1.0490    -1.2070 h1         1 CA7       0.087700
     38 HO2         -5.7280     2.4970     0.0850 ho         1 CA7       0.438000
     39 H3          -6.7370     0.3880     1.5930 h1         1 CA7       0.057700
     40 HO3         -8.4240     1.9370     1.5690 ho         1 CA7       0.424000
     41 H4          -8.7110    -1.0250    -0.2440 h1         1 CA7       0.048700
     42 HO4         -9.0590    -1.3020     2.0260 ho         1 CA7       0.426000
     43 H5          -5.9240    -1.8780     0.6610 h1         1 CA7       0.075700
     44 H6          -7.5660    -3.6950     0.2210 h1         1 CA7       0.037200
     45 H6A         -7.8230    -3.0560    -1.4040 h1         1 CA7       0.037200
     46 HO6         -6.1620    -4.7210    -1.2740 ho         1 CA7       0.406000
     47 HOAB        -2.1810    -3.5180    -1.5060 ho         1 CA7       0.408000
     48 HOAF        -0.2540     3.4640     0.6990 ho         1 CA7       0.428000
     49 HOAG        -3.6080     3.6090     0.7130 ho         1 CA7       0.430000
     50 HAH          5.5080     0.2430    -1.0560 hc         1 CA7       0.038700
     51 HAHA         5.5930     1.4300     0.2270 hc         1 CA7       0.038700
     52 HAI          3.9490    -1.1410     0.2970 hc         1 CA7       0.039700
     53 HAIA         4.0590    -0.0010     1.6220 hc         1 CA7       0.039700
     54 HAJ          6.6070    -0.2570     1.7490 hc         1 CA7       0.037700
     55 HAJA         6.4780    -1.4820     0.5060 hc         1 CA7       0.037700
     56 HAKA        14.2940     0.2620    -0.6540 hc         1 CA7       0.037700
     57 HAL          3.0950     1.7940     0.2040 hc         1 CA7       0.051700
     58 HALA         3.0200     0.6970    -1.1670 hc         1 CA7       0.051700
     59 HAM          7.9840    -0.1740    -0.9770 hc         1 CA7       0.038200
     60 HAMA         8.1020     1.0830     0.2320 hc         1 CA7       0.038200
     61 HAN         12.8180    -1.6750    -1.0660 hc         1 CA7       0.037450
     62 HANA        13.6680    -1.8940     0.4530 hc         1 CA7       0.037450
     63 HAO         12.5880     2.0910    -0.7490 hc         1 CA7       0.037450
     64 HAOA        12.1620     0.7540    -1.7990 hc         1 CA7       0.037450
     65 HAP          1.4240    -0.7540     0.0390 h1         1 CA7       0.035700
     66 HAPA         1.5520     0.2590     1.4800 h1         1 CA7       0.035700
     67 HAR         -2.7300    -1.3710    -2.2840 h1         1 CA7       0.045200
     68 HARA        -3.8520    -2.0090    -1.0800 h1         1 CA7       0.045200
     69 HAS          9.2540    -0.4290     1.7880 hc         1 CA7       0.037700
     70 HASA         8.9070    -1.8110     0.7720 hc         1 CA7       0.037700
     71 HAT         11.2550    -2.4750     0.6730 hc         1 CA7       0.037450
     72 HATA        11.6820    -1.1300     1.7150 hc         1 CA7       0.037450
     73 HAU         11.0230     1.2770     0.9880 hc         1 CA7       0.037450
     74 HAUA        10.1870     1.5090    -0.5370 hc         1 CA7       0.037450
     75 HAZ         10.3470    -0.9140    -1.0130 hc         1 CA7       0.044700
     76 HBB         -2.5320    -0.8940     0.7210 h1         1 CA7       0.059700
     77 HBF         -1.4280     2.4710    -0.9820 h1         1 CA7       0.068700
     78 HBG         -3.0500     1.5060     1.4120 h1         1 CA7       0.055700
     79 HBH         -0.7410     0.5180     1.2710 h2         1 CA7       0.034700
     80 HBJ         -3.4540     0.9340    -1.5530 h1         1 CA7       0.065700
     81 CAR         -2.8140    -1.7100    -1.2420 c3         1 CA7       0.141400
     82 HAK         13.5480     0.5330     0.9110 hc         1 CA7       0.037700
@<TRIPOS>BOND
     1     1     2 1   
     2     1     3 1   
     3     1    10 1   
     4     1    36 1   
     5     2    35 1   
     6     3     4 1   
     7     3     5 1   
     8     3    37 1   
     9     4    38 1   
    10     5     6 1   
    11     5     7 1   
    12     5    39 1   
    13     6    40 1   
    14     7     8 1   
    15     7     9 1   
    16     7    41 1   
    17     8    42 1   
    18     9    10 1   
    19     9    11 1   
    20     9    43 1   
    21    11    12 1   
    22    11    44 1   
    23    11    45 1   
    24    12    46 1   
    25    13    47 1   
    26    13    81 1   
    27    14    32 1   
    28    14    48 1   
    29    15    33 1   
    30    15    49 1   
    31    16    17 1   
    32    16    18 1   
    33    16    50 1   
    34    16    51 1   
    35    17    20 1   
    36    17    52 1   
    37    17    53 1   
    38    18    21 1   
    39    18    54 1   
    40    18    55 1   
    41    19    22 1   
    42    19    23 1   
    43    19    56 1   
    44    19    82 1   
    45    20    24 1   
    46    20    57 1   
    47    20    58 1   
    48    21    25 1   
    49    21    59 1   
    50    21    60 1   
    51    22    26 1   
    52    22    61 1   
    53    22    62 1   
    54    23    27 1   
    55    23    63 1   
    56    23    64 1   
    57    24    29 1   
    58    24    65 1   
    59    24    66 1   
    60    25    30 1   
    61    25    69 1   
    62    25    70 1   
    63    26    30 1   
    64    26    71 1   
    65    26    72 1   
    66    27    30 1   
    67    27    73 1   
    68    27    74 1   
    69    28    31 1   
    70    28    34 1   
    71    29    34 1   
    72    30    75 1   
    73    31    35 1   
    74    31    76 1   
    75    31    81 1   
    76    32    33 1   
    77    32    34 1   
    78    32    77 1   
    79    33    35 1   
    80    33    78 1   
    81    34    79 1   
    82    35    80 1   
    83    67    81 1   
    84    68    81 1   
@<TRIPOS>SUBSTRUCTURE
     1 CA7         1 TEMP              0 ****  ****    0 ROOT
