@<TRIPOS>MOLECULE
CA7
   82    84     1     0     0
SMALL
No Charge or Current Charge


@<TRIPOS>ATOM
      1 C1          -5.8940     0.3420    -0.7650 c6         1 CA7       0.364300
      2 O1          -4.8270    -0.0920     0.1060 os         1 CA7      -0.498000
      3 C2          -6.9630     1.2020    -0.0030 c6         1 CA7       0.118300
      4 O2          -6.3860     2.3460     0.6760 oh         1 CA7      -0.727000
      5 C3          -7.7160     0.3040     1.0180 c6         1 CA7       0.107300
      6 O3          -8.7480     1.0580     1.6800 oh         1 CA7      -0.667000
      7 C4          -8.3140    -0.9430     0.3050 c6         1 CA7       0.150300
      8 O4          -8.9920    -1.7630     1.2740 oh         1 CA7      -0.719000
      9 C5          -7.1730    -1.7120    -0.4340 c6         1 CA7       0.169300
     10 O5          -6.4990    -0.8210    -1.3680 os         1 CA7      -0.454000
     11 C6          -7.7060    -2.9490    -1.2300 c3         1 CA7       0.168600
     12 O6          -6.6760    -3.6480    -1.9620 oh         1 CA7      -0.719000
     13 OAB         -1.7390    -3.1540     0.3370 oh         1 CA7      -0.714000
     14 OAF         -1.2750     3.3700    -0.0430 oh         1 CA7      -0.726000
     15 OAG         -3.9800     2.7150    -0.4410 oh         1 CA7      -0.729000
     16 CAH          5.5800     0.4060    -0.0930 c3         1 CA7      -0.074400
     17 CAI          4.2070    -0.0320     0.4630 c3         1 CA7      -0.073400
     18 CAJ          6.7550    -0.4160     0.4810 c3         1 CA7      -0.074400
     19 CAK         13.6150     0.2640     0.1230 c6         1 CA7      -0.074400
     20 CAL          3.0320     0.7900    -0.1110 c3         1 CA7      -0.081400
     21 CAM          8.1280     0.0220    -0.0750 c3         1 CA7      -0.074400
     22 CAN         13.1770    -1.1940    -0.1520 c6         1 CA7      -0.073900
     23 CAO         12.5670     1.2670    -0.4150 c6         1 CA7      -0.073900
     24 CAP          1.6640     0.3500     0.4450 c3         1 CA7       0.165600
     25 CAS          9.3040    -0.7990     0.5040 c3         1 CA7      -0.070400
     26 CAT         11.7740    -1.4780     0.4400 c6         1 CA7      -0.070900
     27 CAU         11.1610     0.9860     0.1710 c6         1 CA7      -0.070900
     28 OAV         -1.1010    -0.3700    -0.1660 os         1 CA7      -0.465000
     29 OAX          0.6620     1.1840    -0.1590 os         1 CA7      -0.457000
     30 CAZ         10.7080    -0.4800    -0.0980 c6         1 CA7      -0.059700
     31 CBB         -2.4390    -0.7400     0.2690 c6         1 CA7       0.163300
     32 CBF         -1.6440     2.0100    -0.3790 c6         1 CA7       0.113300
     33 CBG         -3.0930     1.7110     0.0860 c6         1 CA7       0.163300
     34 CBH         -0.6920     0.9460     0.2580 c6         1 CA7       0.365300
     35 CBJ         -3.4860     0.2520    -0.3240 c6         1 CA7       0.155300
     36 H1          -5.4820     0.9660    -1.5730 h2         1 CA7       0.084700
     37 H2          -7.6880     1.5470    -0.7570 h1         1 CA7       0.087700
     38 HO2         -5.4730     2.4790     0.2790 ho         1 CA7       0.537000
     39 H3          -6.9830    -0.0470     1.7610 h1         1 CA7       0.057700
     40 HO3         -8.3520     1.9510     1.8190 ho         1 CA7       0.463000
     41 H4          -9.0350    -0.5950    -0.4510 h1         1 CA7       0.048700
     42 HO4         -9.4190    -1.1150     1.8860 ho         1 CA7       0.525000
     43 H5          -6.4440    -2.0750     0.3040 h1         1 CA7       0.075700
     44 H6          -8.1860    -3.6340    -0.5190 h1         1 CA7       0.037200
     45 H6A         -8.4860    -2.5980    -1.9200 h1         1 CA7       0.037200
     46 HO6         -7.1230    -4.3580    -2.4800 ho         1 CA7       0.505000
     47 HOAB        -1.9610    -4.0350    -0.0450 ho         1 CA7       0.507000
     48 HOAF        -0.2960     3.4270    -0.1670 ho         1 CA7       0.527000
     49 HOAG        -3.3980     3.5150    -0.5210 ho         1 CA7       0.529000
     50 HAH          5.5740     0.3100    -1.1860 hc         1 CA7       0.038700
     51 HAHA         5.7390     1.4680     0.1350 hc         1 CA7       0.038700
     52 HAI          4.0490    -1.0940     0.2350 hc         1 CA7       0.039700
     53 HAIA         4.2140     0.0630     1.5560 hc         1 CA7       0.039700
     54 HAJ          6.7620    -0.3200     1.5740 hc         1 CA7       0.037700
     55 HAJA         6.5960    -1.4780     0.2540 hc         1 CA7       0.037700
     56 HAKA        14.5900     0.4550    -0.3440 hc         1 CA7       0.037700
     57 HAL          3.1870     1.8510     0.1180 hc         1 CA7       0.051700
     58 HALA         3.0220     0.6920    -1.2040 hc         1 CA7       0.051700
     59 HAM          8.1220    -0.0770    -1.1680 hc         1 CA7       0.038200
     60 HAMA         8.2730     1.0850     0.1510 hc         1 CA7       0.038200
     61 HAN         13.1660    -1.3800    -1.2350 hc         1 CA7       0.037450
     62 HANA        13.9100    -1.8910     0.2770 hc         1 CA7       0.037450
     63 HAO         12.8740     2.2930    -0.1690 hc         1 CA7       0.037450
     64 HAOA        12.5280     1.2080    -1.5120 hc         1 CA7       0.037450
     65 HAP          1.4930    -0.7070     0.2020 h1         1 CA7       0.035700
     66 HAPA         1.6570     0.4630     1.5370 h1         1 CA7       0.035700
     67 HAR         -2.7410    -2.2490    -1.2640 h1         1 CA7       0.045200
     68 HARA        -3.7180    -2.4950     0.1870 h1         1 CA7       0.045200
     69 HAS          9.3290    -0.6560     1.5920 hc         1 CA7       0.037700
     70 HASA         9.0830    -1.8620     0.3440 hc         1 CA7       0.037700
     71 HAT         11.4800    -2.5080     0.1980 hc         1 CA7       0.037450
     72 HATA        11.8210    -1.4180     1.5360 hc         1 CA7       0.037450
     73 HAU         11.1680     1.1820     1.2530 hc         1 CA7       0.037450
     74 HAUA        10.4490     1.6950    -0.2700 hc         1 CA7       0.037450
     75 HAZ         10.6210    -0.6240    -1.1840 hc         1 CA7       0.044700
     76 HBB         -2.4790    -0.6950     1.3670 h1         1 CA7       0.059700
     77 HBF         -1.5980     1.8750    -1.4710 h1         1 CA7       0.068700
     78 HBG         -3.1070     1.7610     1.1860 h1         1 CA7       0.055700
     79 HBH         -0.7490     1.0130     1.3550 h2         1 CA7       0.034700
     80 HBJ         -3.4350     0.1630    -1.4190 h1         1 CA7       0.065700
     81 CAR         -2.7160    -2.2170    -0.1660 c3         1 CA7       0.164600
     82 HAK         13.7500     0.4130     1.2030 hc         1 CA7       0.037700
@<TRIPOS>BOND
     1     1     2 1   
     2     1     3 1   
     3     1    10 1   
     4     1    36 1   
     5     2    35 1   
     6     3     4 1   
     7     3     5 1   
     8     3    37 1   
     9     4    38 1   
    10     5     6 1   
    11     5     7 1   
    12     5    39 1   
    13     6    40 1   
    14     7     8 1   
    15     7     9 1   
    16     7    41 1   
    17     8    42 1   
    18     9    10 1   
    19     9    11 1   
    20     9    43 1   
    21    11    12 1   
    22    11    44 1   
    23    11    45 1   
    24    12    46 1   
    25    13    47 1   
    26    13    81 1   
    27    14    32 1   
    28    14    48 1   
    29    15    33 1   
    30    15    49 1   
    31    16    17 1   
    32    16    18 1   
    33    16    50 1   
    34    16    51 1   
    35    17    20 1   
    36    17    52 1   
    37    17    53 1   
    38    18    21 1   
    39    18    54 1   
    40    18    55 1   
    41    19    22 1   
    42    19    23 1   
    43    19    56 1   
    44    19    82 1   
    45    20    24 1   
    46    20    57 1   
    47    20    58 1   
    48    21    25 1   
    49    21    59 1   
    50    21    60 1   
    51    22    26 1   
    52    22    61 1   
    53    22    62 1   
    54    23    27 1   
    55    23    63 1   
    56    23    64 1   
    57    24    29 1   
    58    24    65 1   
    59    24    66 1   
    60    25    30 1   
    61    25    69 1   
    62    25    70 1   
    63    26    30 1   
    64    26    71 1   
    65    26    72 1   
    66    27    30 1   
    67    27    73 1   
    68    27    74 1   
    69    28    31 1   
    70    28    34 1   
    71    29    34 1   
    72    30    75 1   
    73    31    35 1   
    74    31    76 1   
    75    31    81 1   
    76    32    33 1   
    77    32    34 1   
    78    32    77 1   
    79    33    35 1   
    80    33    78 1   
    81    34    79 1   
    82    35    80 1   
    83    67    81 1   
    84    68    81 1   
@<TRIPOS>SUBSTRUCTURE
     1 CA7         1 TEMP              0 ****  ****    0 ROOT
