@<TRIPOS>MOLECULE
CAB
   19    18     1     0     0
SMALL
bcc


@<TRIPOS>ATOM
      1 C1          38.0870    91.6610    90.1590 c          1 CAB       0.555900
      2 O1          37.8460    91.1130    91.2030 o          1 CAB      -0.545100
      3 C2          37.8840    91.0230    88.7870 c3         1 CAB       0.261600
      4 C3          36.6410    91.6850    88.1590 c3         1 CAB      -0.114400
      5 CA          36.3860    91.2420    86.7140 c3         1 CAB       0.008500
      6 N           37.5700    91.5380    85.9000 n8         1 CAB      -0.909800
      7 C           35.0790    91.8970    86.1940 c          1 CAB       0.911600
      8 OXT         35.1950    92.7460    85.2900 o          1 CAB      -0.829300
      9 H1          38.4600    92.7010    90.1200 h4         1 CAB      -0.014800
     10 O4          37.7240    89.6350    88.9060 oh         1 CAB      -0.628300
     11 O5          39.0290    91.2710    88.0620 oh         1 CAB      -0.628300
     12 H3          35.7640    91.4560    88.7680 hc         1 CAB       0.055700
     13 H3A         36.7650    92.7740    88.1850 hc         1 CAB       0.055700
     14 H4          36.2450    90.1580    86.7140 h1         1 CAB       0.052700
     15 H           37.6100    90.9100    85.1070 hn         1 CAB       0.349800
     16 H2          37.4520    92.4660    85.5060 hn         1 CAB       0.349800
     17 H8          37.0190    89.4500    89.5370 ho         1 CAB       0.449500
     18 H9          38.7300    91.3890    87.1140 ho         1 CAB       0.449500
     19 O           34.0300    91.5260    86.7540 o          1 CAB      -0.829300
@<TRIPOS>BOND
     1     1     2 2   
     2     1     3 1   
     3     1     9 1   
     4     3     4 1   
     5     3    10 1   
     6     3    11 1   
     7     4     5 1   
     8     4    12 1   
     9     4    13 1   
    10     5     6 1   
    11     5     7 1   
    12     5    14 1   
    13     6    15 1   
    14     6    16 1   
    15     7     8 1   
    16     7    19 1   
    17    10    17 1   
    18    11    18 1   
@<TRIPOS>SUBSTRUCTURE
     1 CAB         1 TEMP              0 ****  ****    0 ROOT
