@<TRIPOS>MOLECULE
CAB
   19    18     1     0     0
SMALL
No Charge or Current Charge


@<TRIPOS>ATOM
      1 C1          38.0630    91.7110    90.2840 c          1 CAB       0.555900
      2 O1          38.1990    91.1090    91.3510 o          1 CAB      -0.545100
      3 C2          37.7410    91.0080    88.9040 c3         1 CAB       0.261600
      4 C3          36.6770    91.8040    88.1000 c3         1 CAB      -0.114400
      5 CA          36.3980    91.2980    86.6510 c3         1 CAB       0.008500
      6 N           37.6230    91.5030    85.7820 n8         1 CAB      -0.909800
      7 C           35.0240    91.8850    86.1020 c          1 CAB       0.911600
      8 OXT         34.9860    93.0610    85.7520 o          1 CAB      -0.829300
      9 H1          38.1690    92.8180    90.2410 h4         1 CAB      -0.014800
     10 O4          37.2760    89.6700    89.0870 oh         1 CAB      -0.628300
     11 O5          38.8990    90.8950    88.0960 oh         1 CAB      -0.628300
     12 H3          35.7360    91.7790    88.6650 hc         1 CAB       0.055700
     13 H3A         36.9700    92.8600    88.0540 hc         1 CAB       0.055700
     14 H4          36.2400    90.2130    86.7130 h1         1 CAB       0.052700
     15 H           37.4690    91.0480    84.8740 hn         1 CAB       0.349800
     16 H2          37.6800    92.5000    85.5340 hn         1 CAB       0.349800
     17 H8          37.7470    89.3280    89.8780 ho         1 CAB       0.449500
     18 H9          38.5380    91.0340    87.1760 ho         1 CAB       0.449500
     19 O           34.0810    91.1190    85.9360 o          1 CAB      -0.829300
@<TRIPOS>BOND
     1     1     2 2   
     2     1     3 1   
     3     1     9 1   
     4     3     4 1   
     5     3    10 1   
     6     3    11 1   
     7     4     5 1   
     8     4    12 1   
     9     4    13 1   
    10     5     6 1   
    11     5     7 1   
    12     5    14 1   
    13     6    15 1   
    14     6    16 1   
    15     7     8 1   
    16     7    19 1   
    17    10    17 1   
    18    11    18 1   
@<TRIPOS>SUBSTRUCTURE
     1 CAB         1 TEMP              0 ****  ****    0 ROOT
