@<TRIPOS>MOLECULE
CAE
   28    29     1     0     0
SMALL
abcg2


@<TRIPOS>ATOM
      1 C1           0.8030     0.0260     0.3830 c5         1 CAE      -0.054000
      2 C2           1.0590     1.2840    -0.4640 c5         1 CAE      -0.071900
      3 C3          -0.0910     1.2540    -1.5020 c5         1 CAE      -0.075400
      4 C4          -0.9160     0.0290    -1.0790 c5         1 CAE      -0.064700
      5 C5          -0.1290    -1.2170    -1.4990 c5         1 CAE      -0.075400
      6 C6           1.0910    -1.1760    -0.5460 c5         1 CAE      -0.071900
      7 C7          -0.7520     0.0110     0.4550 c5         1 CAE      -0.047000
      8 C8          -1.3230    -1.2340     1.1330 c3         1 CAE      -0.076600
      9 C9          -1.3680     1.2190     1.1600 c3         1 CAE      -0.076600
     10 C10          1.5530    -0.0220     1.6950 c3         1 CAE      -0.068100
     11 H21          1.0100     2.1830     0.1550 hc         1 CAE       0.040700
     12 H22          2.0510     1.2750    -0.9210 hc         1 CAE       0.040700
     13 H31         -0.6800     2.1730    -1.4890 hc         1 CAE       0.040950
     14 H32          0.2740     1.1430    -2.5250 hc         1 CAE       0.040950
     15 H4          -1.9500     0.0450    -1.4300 hc         1 CAE       0.061700
     16 H51         -0.7210    -2.1230    -1.3570 hc         1 CAE       0.040950
     17 H52          0.1570    -1.1900    -2.5520 hc         1 CAE       0.040950
     18 H61          2.0260    -1.0090    -1.0870 hc         1 CAE       0.040700
     19 H62          1.2200    -2.1090     0.0080 hc         1 CAE       0.040700
     20 H81         -2.3990    -1.3050     0.9550 hc         1 CAE       0.032200
     21 H82         -0.8770    -2.1710     0.8010 hc         1 CAE       0.032200
     22 H83         -1.1830    -1.1780     2.2150 hc         1 CAE       0.032200
     23 H91         -2.4560     1.2030     1.0520 hc         1 CAE       0.032200
     24 H92         -1.1570     1.1870     2.2320 hc         1 CAE       0.032200
     25 H93         -1.0210     2.1820     0.7870 hc         1 CAE       0.032200
     26 H101         2.6250    -0.1560     1.5310 hc         1 CAE       0.033700
     27 H102         1.4240     0.8930     2.2770 hc         1 CAE       0.033700
     28 H103         1.2180    -0.8590     2.3120 hc         1 CAE       0.033700
@<TRIPOS>BOND
     1     1     2 1   
     2     1     6 1   
     3     1     7 1   
     4     1    10 1   
     5     2     3 1   
     6     2    11 1   
     7     2    12 1   
     8     3     4 1   
     9     3    13 1   
    10     3    14 1   
    11     4     5 1   
    12     4     7 1   
    13     4    15 1   
    14     5     6 1   
    15     5    16 1   
    16     5    17 1   
    17     6    18 1   
    18     6    19 1   
    19     7     8 1   
    20     7     9 1   
    21     8    20 1   
    22     8    21 1   
    23     8    22 1   
    24     9    23 1   
    25     9    24 1   
    26     9    25 1   
    27    10    26 1   
    28    10    27 1   
    29    10    28 1   
@<TRIPOS>SUBSTRUCTURE
     1 CAE         1 TEMP              0 ****  ****    0 ROOT
