@<TRIPOS>MOLECULE
CAE
   28    29     1     0     0
SMALL
No Charge or Current Charge


@<TRIPOS>ATOM
      1 C1           0.8050     0.0160     0.3860 c5         1 CAE      -0.054000
      2 C2           1.0940     1.2720    -0.5160 c5         1 CAE      -0.071900
      3 C3          -0.0980     1.2720    -1.5270 c5         1 CAE      -0.075400
      4 C4          -0.9250     0.0180    -1.0830 c5         1 CAE      -0.064700
      5 C5          -0.0780    -1.2120    -1.5540 c5         1 CAE      -0.075400
      6 C6           1.1150    -1.2140    -0.5440 c5         1 CAE      -0.071900
      7 C7          -0.7650     0.0030     0.4740 c5         1 CAE      -0.047000
      8 C8          -1.3880    -1.2500     1.1770 c3         1 CAE      -0.076600
      9 C9          -1.4080     1.2290     1.2040 c3         1 CAE      -0.076600
     10 C10          1.5850     0.0080     1.7210 c3         1 CAE      -0.068100
     11 H21          1.1160     2.1990     0.0690 hc         1 CAE       0.040700
     12 H22          2.0650     1.2130    -1.0230 hc         1 CAE       0.040700
     13 H31         -0.6880     2.1930    -1.4490 hc         1 CAE       0.040950
     14 H32          0.2390     1.2130    -2.5680 hc         1 CAE       0.040950
     15 H4          -1.9590     0.0140    -1.4470 hc         1 CAE       0.061700
     16 H51         -0.6520    -2.1440    -1.4960 hc         1 CAE       0.040950
     17 H52          0.2580    -1.1240    -2.5940 hc         1 CAE       0.040950
     18 H61          2.0840    -1.1280    -1.0480 hc         1 CAE       0.040700
     19 H62          1.1520    -2.1530     0.0210 hc         1 CAE       0.040700
     20 H81         -2.4780    -1.2620     1.0570 hc         1 CAE       0.032200
     21 H82         -1.0200    -2.2070     0.7940 hc         1 CAE       0.032200
     22 H83         -1.1780    -1.2430     2.2530 hc         1 CAE       0.032200
     23 H91         -2.4980     1.2260     1.0840 hc         1 CAE       0.032200
     24 H92         -1.1980     1.2020     2.2800 hc         1 CAE       0.032200
     25 H93         -1.0560     2.2000     0.8420 hc         1 CAE       0.032200
     26 H101         2.6670     0.0190     1.5420 hc         1 CAE       0.033700
     27 H102         1.3400     0.8850     2.3320 hc         1 CAE       0.033700
     28 H103         1.3550    -0.8860     2.3120 hc         1 CAE       0.033700
@<TRIPOS>BOND
     1     1     2 1   
     2     1     6 1   
     3     1     7 1   
     4     1    10 1   
     5     2     3 1   
     6     2    11 1   
     7     2    12 1   
     8     3     4 1   
     9     3    13 1   
    10     3    14 1   
    11     4     5 1   
    12     4     7 1   
    13     4    15 1   
    14     5     6 1   
    15     5    16 1   
    16     5    17 1   
    17     6    18 1   
    18     6    19 1   
    19     7     8 1   
    20     7     9 1   
    21     8    20 1   
    22     8    21 1   
    23     8    22 1   
    24     9    23 1   
    25     9    24 1   
    26     9    25 1   
    27    10    26 1   
    28    10    27 1   
    29    10    28 1   
@<TRIPOS>SUBSTRUCTURE
     1 CAE         1 TEMP              0 ****  ****    0 ROOT
