@<TRIPOS>MOLECULE
CAG
   63    66     1     0     0
SMALL
bcc


@<TRIPOS>ATOM
      1 PG          -1.4230     0.1000     4.2720 p5         1 CAG       1.445800
      2 O1G         -2.3070     1.2930     4.4680 o          1 CAG      -0.855000
      3 O2G         -1.5530    -1.0910     5.1670 o          1 CAG      -0.855000
      4 O3G          0.1510     0.6000     4.2410 os         1 CAG      -0.538200
      5 PB          -2.2640    -1.6420     2.1240 p5         1 CAG       1.517800
      6 O1B         -1.4280    -2.8750     2.2340 o          1 CAG      -0.866500
      7 O2B         -3.6630    -1.5930     2.6420 o          1 CAG      -0.866500
      8 O3B         -1.4240    -0.3430     2.6970 os         1 CAG      -0.687800
      9 PA          -2.4160    -2.0960    -0.7210 p5         1 CAG       1.450800
     10 O1A         -1.0750    -2.4630    -1.2860 o          1 CAG      -0.860500
     11 O2A         -3.4240    -3.1640    -0.4370 o          1 CAG      -0.860500
     12 O3A         -2.2330    -1.1020     0.5640 os         1 CAG      -0.683800
     13 O5          -3.0970    -0.9300    -1.6680 os         1 CAG      -0.520200
     14 C5B         -3.4110    -1.2950    -2.9910 c3         1 CAG       0.193400
     15 C4B         -3.3410    -0.0680    -3.8810 c5         1 CAG       0.134100
     16 O4          -2.0710     0.5810    -3.7630 os         1 CAG      -0.353600
     17 C3B         -3.4820    -0.4340    -5.3510 c5         1 CAG       0.072100
     18 O3          -4.0070     0.6660    -6.0480 oh         1 CAG      -0.592800
     19 C2B         -2.0180    -0.6770    -5.7320 c5         1 CAG       0.042100
     20 O2          -1.7310    -0.5320    -7.0910 oh         1 CAG      -0.591800
     21 C1B         -1.3210     0.4240    -4.9310 c5         1 CAG       0.269800
     22 N9           0.0440     0.1190    -4.5790 na         1 CAG      -0.201900
     23 C8           0.4770    -0.7580    -3.6120 cc         1 CAG       0.476400
     24 N7           1.7720    -0.8220    -3.5440 nd         1 CAG      -0.607000
     25 C5           2.2200     0.0450    -4.5070 cd         1 CAG       0.174800
     26 C6           3.5450     0.4000    -4.8910 c          1 CAG       0.661000
     27 O6           4.6060    -0.0070    -4.4470 o          1 CAG      -0.625500
     28 N1           3.5210     1.3470    -5.9230 ns         1 CAG      -0.526400
     29 C2           2.4050     1.8760    -6.5050 cd         1 CAG       0.679800
     30 N2           2.5980     2.8030    -7.4580 nv         1 CAG      -0.946800
     31 N3           1.1900     1.5450    -6.1490 nc         1 CAG      -0.667100
     32 C4           1.1570     0.6420    -5.1590 cc         1 CAG       0.078800
     33 C            0.6700     1.1710     5.4280 c3         1 CAG       0.248400
     34 CM           0.8860     2.6630     5.2210 c3         1 CAG      -0.100100
     35 C1           1.9840     0.4760     5.7430 ca         1 CAG       0.028700
     36 C10          2.4410     0.1330     7.0160 ca         1 CAG      -0.173200
     37 N4           1.6660     0.4420     8.2090 no         1 CAG       0.321200
     38 O'L          1.6740    -0.3650     9.1080 o          1 CAG      -0.231500
     39 O'M          1.0710     1.4940     8.2510 o          1 CAG      -0.231500
     40 C3           3.6490    -0.5220     7.2300 ca         1 CAG      -0.106000
     41 C11          4.4600    -0.8210     6.1530 ca         1 CAG      -0.169000
     42 C7           4.0380    -0.4870     4.8730 ca         1 CAG      -0.110000
     43 C9           2.8190     0.1370     4.6780 ca         1 CAG      -0.085000
     44 H5'1        -2.7330    -2.0710    -3.3660 h1         1 CAG       0.005700
     45 H5'2        -4.4270    -1.7030    -3.0540 h1         1 CAG       0.005700
     46 H4B         -4.1130     0.6450    -3.5780 h1         1 CAG       0.095700
     47 H3B         -4.0970    -1.3330    -5.4900 h1         1 CAG       0.049700
     48 HO3         -3.7700     0.5680    -6.9780 ho         1 CAG       0.394000
     49 H2          -1.7040    -1.6580    -5.3560 h1         1 CAG       0.079700
     50 HO2         -1.9380    -1.3590    -7.5400 ho         1 CAG       0.395000
     51 H1          -1.2890     1.3480    -5.5190 h2         1 CAG       0.084700
     52 H8          -0.2060    -1.3020    -2.9710 h5         1 CAG       0.160100
     53 H7           4.4260     1.6610    -6.2500 hn         1 CAG       0.296500
     54 H21          1.7980     3.0630    -8.0100 hn         1 CAG       0.421800
     55 H22          3.4900     2.8820    -7.9180 hn         1 CAG       0.421800
     56 H           -0.0310     1.0300     6.2530 h1         1 CAG       0.059700
     57 HCM1         1.5730     2.8450     4.3930 hc         1 CAG       0.031367
     58 HCM2        -0.0650     3.1450     4.9950 hc         1 CAG       0.031367
     59 HCM3         1.3010     3.1280     6.1140 hc         1 CAG       0.031367
     60 H3           3.9640    -0.7770     8.2320 ha         1 CAG       0.129000
     61 H4           5.4090    -1.3120     6.3140 ha         1 CAG       0.110000
     62 H5           4.6610    -0.7190     4.0190 ha         1 CAG       0.126000
     63 H6           2.5020     0.3630     3.6690 ha         1 CAG       0.191000
@<TRIPOS>BOND
     1     1     2 1   
     2     1     3 1   
     3     1     4 1   
     4     1     8 1   
     5     4    33 1   
     6     5     6 1   
     7     5     7 1   
     8     5     8 1   
     9     5    12 1   
    10     9    10 1   
    11     9    11 1   
    12     9    12 1   
    13     9    13 1   
    14    13    14 1   
    15    14    15 1   
    16    14    44 1   
    17    14    45 1   
    18    15    16 1   
    19    15    17 1   
    20    15    46 1   
    21    16    21 1   
    22    17    18 1   
    23    17    19 1   
    24    17    47 1   
    25    18    48 1   
    26    19    20 1   
    27    19    21 1   
    28    19    49 1   
    29    20    50 1   
    30    21    22 1   
    31    21    51 1   
    32    22    23 1   
    33    22    32 1   
    34    23    24 2   
    35    23    52 1   
    36    24    25 1   
    37    25    26 1   
    38    25    32 2   
    39    26    27 2   
    40    26    28 1   
    41    28    29 1   
    42    28    53 1   
    43    29    30 1   
    44    29    31 2   
    45    30    54 1   
    46    30    55 1   
    47    31    32 1   
    48    33    34 1   
    49    33    35 1   
    50    33    56 1   
    51    34    57 1   
    52    34    58 1   
    53    34    59 1   
    54    35    36 ar  
    55    35    43 ar  
    56    36    37 1   
    57    36    40 ar  
    58    37    38 1   
    59    37    39 1   
    60    40    41 ar  
    61    40    60 1   
    62    41    42 ar  
    63    41    61 1   
    64    42    43 ar  
    65    42    62 1   
    66    43    63 1   
@<TRIPOS>SUBSTRUCTURE
     1 CAG         1 TEMP              0 ****  ****    0 ROOT
