@<TRIPOS>MOLECULE
CAG
   63    66     1     0     0
SMALL
No Charge or Current Charge


@<TRIPOS>ATOM
      1 PG          -1.8380    -0.4110     3.2760 p5         1 CAG       1.445800
      2 O1G         -2.5250     0.8750     3.6030 o          1 CAG      -0.855000
      3 O2G         -1.9940    -1.4240     4.3620 o          1 CAG      -0.855000
      4 O3G         -0.2610    -0.1620     3.0400 os         1 CAG      -0.561400
      5 PB          -3.3910    -1.9210     1.7270 p5         1 CAG       1.517800
      6 O1B         -2.9600    -3.3220     2.0200 o          1 CAG      -0.866500
      7 O2B         -4.5770    -1.4950     2.5320 o          1 CAG      -0.866500
      8 O3B         -2.1670    -0.9390     1.8310 os         1 CAG      -0.687800
      9 PA          -3.9680    -2.8610    -0.6970 p5         1 CAG       1.450800
     10 O1A         -2.7530    -3.6430    -1.0780 o          1 CAG      -0.860500
     11 O2A         -5.0730    -3.7210    -0.1730 o          1 CAG      -0.860500
     12 O3A         -3.6710    -1.6100     0.2050 os         1 CAG      -0.683800
     13 O5          -4.5320    -2.0660    -1.9860 os         1 CAG      -0.543400
     14 C5B         -3.6650    -1.4740    -2.9670 c3         1 CAG       0.216600
     15 C4B         -3.1350    -0.0820    -2.5010 c5         1 CAG       0.157300
     16 O4          -1.8810    -0.2310    -1.7740 os         1 CAG      -0.400000
     17 C3B         -2.7780     0.8470    -3.7140 c5         1 CAG       0.095300
     18 O3          -2.7320     2.2400    -3.3700 oh         1 CAG      -0.715000
     19 C2B         -1.3560     0.3110    -4.0480 c5         1 CAG       0.065300
     20 O2          -0.6390     1.2070    -4.9230 oh         1 CAG      -0.714000
     21 C1B         -0.7840     0.2280    -2.5940 c5         1 CAG       0.322300
     22 N9           0.3870    -0.6110    -2.3580 na         1 CAG      -0.180500
     23 C8           0.4750    -1.9740    -2.5660 cc         1 CAG       0.476400
     24 N7           1.7020    -2.4260    -2.2970 nd         1 CAG      -0.607000
     25 C5           2.4320    -1.3060    -1.9150 cd         1 CAG       0.109500
     26 C6           3.8630    -1.1570    -1.5100 c          1 CAG       0.518500
     27 O6           4.6820    -2.0630    -1.4280 o          1 CAG      -0.550000
     28 N1           4.1890     0.1410    -1.2350 ns         1 CAG      -0.459400
     29 C2           3.3080     1.1600    -1.3110 cd         1 CAG       0.679800
     30 N2           3.7700     2.3730    -1.0580 nv         1 CAG      -1.057200
     31 N3           2.0460     1.0930    -1.6630 nc         1 CAG      -0.667100
     32 C4           1.6300    -0.1910    -1.9550 cc         1 CAG       0.093400
     33 C            0.2850     1.0220     2.4280 c3         1 CAG       0.271600
     34 CM          -0.3010     1.2390     1.0130 c3         1 CAG      -0.100100
     35 C1           1.8170     0.8640     2.3710 ca         1 CAG       0.028700
     36 C10          2.7200     1.9170     2.6970 ca         1 CAG      -0.173200
     37 N4           2.2460     3.2840     3.0640 no         1 CAG       0.701200
     38 O'L          2.8360     3.8710     3.9800 o          1 CAG      -0.421500
     39 O'M          1.4020     3.8230     2.3380 o          1 CAG      -0.421500
     40 C3           4.1130     1.6750     2.6720 ca         1 CAG      -0.088000
     41 C11          4.6150     0.4150     2.3130 ca         1 CAG      -0.151000
     42 C7           3.7330    -0.6180     1.9720 ca         1 CAG      -0.092000
     43 C9           2.3480    -0.3920     1.9960 ca         1 CAG      -0.067000
     44 H5'1        -2.8220    -2.1340    -3.2060 h1         1 CAG       0.005700
     45 H5'2        -4.2340    -1.3370    -3.8950 h1         1 CAG       0.005700
     46 H4B         -3.8870     0.3840    -1.8510 h1         1 CAG       0.095700
     47 H3B         -3.4700     0.6940    -4.5550 h1         1 CAG       0.049700
     48 HO3         -1.9790     2.6020    -3.8980 ho         1 CAG       0.493000
     49 H2          -1.4110    -0.6950    -4.4920 h1         1 CAG       0.079700
     50 HO2         -0.8710     0.9710    -5.8530 ho         1 CAG       0.494000
     51 H1          -0.5040     1.2350    -2.2630 h2         1 CAG       0.084700
     52 H8          -0.3740    -2.5690    -2.8880 h5         1 CAG       0.160100
     53 H7           5.1350     0.3150    -0.9390 hn         1 CAG       0.296500
     54 H21          3.1450     3.1210    -1.3270 hn         1 CAG       0.477000
     55 H22          4.7570     2.5430    -1.2010 hn         1 CAG       0.477000
     56 H            0.0250     1.8890     3.0470 h1         1 CAG       0.059700
     57 HCM1        -0.1920     0.3320     0.4090 hc         1 CAG       0.031367
     58 HCM2        -1.3600     1.5160     1.0520 hc         1 CAG       0.031367
     59 HCM3         0.2290     2.0500     0.5030 hc         1 CAG       0.031367
     60 H3           4.8130     2.4700     2.9200 ha         1 CAG       0.111000
     61 H4           5.6880     0.2420     2.2960 ha         1 CAG       0.092000
     62 H5           4.1210    -1.5940     1.6910 ha         1 CAG       0.108000
     63 H6           1.6760    -1.2060     1.7330 ha         1 CAG       0.173000
@<TRIPOS>BOND
     1     1     2 1   
     2     1     3 1   
     3     1     4 1   
     4     1     8 1   
     5     4    33 1   
     6     5     6 1   
     7     5     7 1   
     8     5     8 1   
     9     5    12 1   
    10     9    10 1   
    11     9    11 1   
    12     9    12 1   
    13     9    13 1   
    14    13    14 1   
    15    14    15 1   
    16    14    44 1   
    17    14    45 1   
    18    15    16 1   
    19    15    17 1   
    20    15    46 1   
    21    16    21 1   
    22    17    18 1   
    23    17    19 1   
    24    17    47 1   
    25    18    48 1   
    26    19    20 1   
    27    19    21 1   
    28    19    49 1   
    29    20    50 1   
    30    21    22 1   
    31    21    51 1   
    32    22    23 1   
    33    22    32 1   
    34    23    24 2   
    35    23    52 1   
    36    24    25 1   
    37    25    26 1   
    38    25    32 2   
    39    26    27 2   
    40    26    28 1   
    41    28    29 1   
    42    28    53 1   
    43    29    30 1   
    44    29    31 2   
    45    30    54 1   
    46    30    55 1   
    47    31    32 1   
    48    33    34 1   
    49    33    35 1   
    50    33    56 1   
    51    34    57 1   
    52    34    58 1   
    53    34    59 1   
    54    35    36 ar  
    55    35    43 ar  
    56    36    37 1   
    57    36    40 ar  
    58    37    38 1   
    59    37    39 1   
    60    40    41 ar  
    61    40    60 1   
    62    41    42 ar  
    63    41    61 1   
    64    42    43 ar  
    65    42    62 1   
    66    43    63 1   
@<TRIPOS>SUBSTRUCTURE
     1 CAG         1 TEMP              0 ****  ****    0 ROOT
