@<TRIPOS>MOLECULE
CAH
   28    29     1     0     0
SMALL
No Charge or Current Charge


@<TRIPOS>ATOM
      1 C1          -0.1790     0.6910    -0.5550 c5         1 CAH      -0.154000
      2 C2           0.7960    -0.0720    -1.5100 c          1 CAH       0.577100
      3 O2           0.6670    -0.1150    -2.7270 o          1 CAH      -0.511100
      4 C3           1.2240    -1.2730    -0.6450 c5         1 CAH      -0.194400
      5 C4           0.4330    -1.0890     0.7030 c5         1 CAH      -0.052700
      6 C5           1.1890     0.1000     1.4110 c5         1 CAH       0.165300
      7 O5           0.8730     0.2130     2.7970 oh         1 CAH      -0.652000
      8 C6           0.7080     1.3390     0.5750 c5         1 CAH      -0.111400
      9 C7          -0.9180    -0.4570     0.2220 c5         1 CAH      -0.036000
     10 C8          -1.7730    -1.4120    -0.6770 c3         1 CAH      -0.079100
     11 C9          -1.9020    -0.0000     1.3520 c3         1 CAH      -0.079100
     12 C10         -1.0870     1.7030    -1.3040 c3         1 CAH      -0.062100
     13 H31          2.3050    -1.2200    -0.4790 hc         1 CAH       0.075700
     14 H32          1.0230    -2.2100    -1.1740 hc         1 CAH       0.075700
     15 H4           0.3480    -1.9980     1.3100 hc         1 CAH       0.086700
     16 H5           2.2780    -0.0210     1.3200 h1         1 CAH       0.034700
     17 HO5          1.3660     0.9910     3.1370 ho         1 CAH       0.443000
     18 H61          1.5540     1.8980     0.1580 hc         1 CAH       0.056200
     19 H62          0.1430     2.0560     1.1820 hc         1 CAH       0.056200
     20 H81         -2.1060    -2.2890    -0.1070 hc         1 CAH       0.038533
     21 H82         -2.6730    -0.9080    -1.0500 hc         1 CAH       0.038533
     22 H83         -1.2440    -1.7900    -1.5570 hc         1 CAH       0.038533
     23 H91         -2.1950    -0.8510     1.9790 hc         1 CAH       0.038533
     24 H92         -1.5000     0.7650     2.0210 hc         1 CAH       0.038533
     25 H93         -2.8210     0.4220     0.9280 hc         1 CAH       0.038533
     26 H101        -0.4870     2.4660    -1.8150 hc         1 CAH       0.043033
     27 H102        -1.7070     1.2070    -2.0600 hc         1 CAH       0.043033
     28 H103        -1.7600     2.2220    -0.6120 hc         1 CAH       0.043033
@<TRIPOS>BOND
     1     1     2 1   
     2     1     8 1   
     3     1     9 1   
     4     1    12 1   
     5     2     3 2   
     6     2     4 1   
     7     4     5 1   
     8     4    13 1   
     9     4    14 1   
    10     5     6 1   
    11     5     9 1   
    12     5    15 1   
    13     6     7 1   
    14     6     8 1   
    15     6    16 1   
    16     7    17 1   
    17     8    18 1   
    18     8    19 1   
    19     9    10 1   
    20     9    11 1   
    21    10    20 1   
    22    10    21 1   
    23    10    22 1   
    24    11    23 1   
    25    11    24 1   
    26    11    25 1   
    27    12    26 1   
    28    12    27 1   
    29    12    28 1   
@<TRIPOS>SUBSTRUCTURE
     1 CAH         1 TEMP              0 ****  ****    0 ROOT
