@<TRIPOS>MOLECULE
CAH
   28    29     1     0     0
SMALL
abcg2


@<TRIPOS>ATOM
      1 C1          -0.2510     0.6870    -0.5630 c5         1 CAH      -0.154000
      2 C2           0.7040    -0.1020    -1.4380 c          1 CAH       0.577100
      3 O2           1.0500     0.1730    -2.5610 o          1 CAH      -0.511100
      4 C3           1.1570    -1.2980    -0.6180 c5         1 CAH      -0.194400
      5 C4           0.4270    -1.0640     0.7100 c5         1 CAH      -0.052700
      6 C5           1.1650     0.1120     1.3650 c5         1 CAH       0.165300
      7 O5           0.8510     0.2080     2.7350 oh         1 CAH      -0.652000
      8 C6           0.6910     1.3100     0.5020 c5         1 CAH      -0.111400
      9 C7          -0.9220    -0.4620     0.2370 c5         1 CAH      -0.036000
     10 C8          -1.7410    -1.4090    -0.6450 c3         1 CAH      -0.079100
     11 C9          -1.8470     0.0130     1.3530 c3         1 CAH      -0.079100
     12 C10         -1.1210     1.6740    -1.3010 c3         1 CAH      -0.062100
     13 H31          2.2450    -1.3340    -0.5290 hc         1 CAH       0.075700
     14 H32          0.8510    -2.2240    -1.1110 hc         1 CAH       0.075700
     15 H4           0.3610    -1.9520     1.3420 hc         1 CAH       0.086700
     16 H5           2.2480    -0.0260     1.2540 h1         1 CAH       0.034700
     17 HO5          1.3110     0.9730     3.0940 ho         1 CAH       0.443000
     18 H61          1.5170     1.8630     0.0500 hc         1 CAH       0.056200
     19 H62          0.1280     2.0270     1.1060 hc         1 CAH       0.056200
     20 H81         -1.9860    -2.3220    -0.0990 hc         1 CAH       0.038533
     21 H82         -2.6840    -0.9390    -0.9280 hc         1 CAH       0.038533
     22 H83         -1.2470    -1.7080    -1.5700 hc         1 CAH       0.038533
     23 H91         -2.1990    -0.8440     1.9310 hc         1 CAH       0.038533
     24 H92         -1.3840     0.7060     2.0490 hc         1 CAH       0.038533
     25 H93         -2.7280     0.5000     0.9310 hc         1 CAH       0.038533
     26 H101        -0.5160     2.3980    -1.8490 hc         1 CAH       0.043033
     27 H102        -1.7740     1.1770    -2.0200 hc         1 CAH       0.043033
     28 H103        -1.7510     2.2320    -0.6070 hc         1 CAH       0.043033
@<TRIPOS>BOND
     1     1     2 1   
     2     1     8 1   
     3     1     9 1   
     4     1    12 1   
     5     2     3 2   
     6     2     4 1   
     7     4     5 1   
     8     4    13 1   
     9     4    14 1   
    10     5     6 1   
    11     5     9 1   
    12     5    15 1   
    13     6     7 1   
    14     6     8 1   
    15     6    16 1   
    16     7    17 1   
    17     8    18 1   
    18     8    19 1   
    19     9    10 1   
    20     9    11 1   
    21    10    20 1   
    22    10    21 1   
    23    10    22 1   
    24    11    23 1   
    25    11    24 1   
    26    11    25 1   
    27    12    26 1   
    28    12    27 1   
    29    12    28 1   
@<TRIPOS>SUBSTRUCTURE
     1 CAH         1 TEMP              0 ****  ****    0 ROOT
