@<TRIPOS>MOLECULE
CAI
  126   129     1     0     0
SMALL
bcc


@<TRIPOS>ATOM
      1 C20         -3.4930    -3.6950     0.3910 c3         1 CAI      -0.196400
      2 C21         -4.5720    -3.8150     1.4250 c          1 CAI       0.574900
      3 O21         -5.1860    -4.8320     1.6370 o          1 CAI      -0.517100
      4 C1          -5.0230     2.9370     1.6280 c          1 CAI       0.648100
      5 C2          -4.5740     1.5850     2.1250 c3         1 CAI      -0.152400
      6 C3          -3.6630     0.8950     1.1130 c3         1 CAI       0.148100
      7 C4          -3.2840    -0.5230     1.5420 c3         1 CAI       0.137100
      8 C5          -2.5430    -1.2640     0.3750 c3         1 CAI       0.135100
      9 C6          -3.3570    -2.3570    -0.3500 c3         1 CAI      -0.062700
     10 C7          -4.6700    -1.7350    -0.8350 c3         1 CAI      -0.076400
     11 C8          -5.3920    -2.4270    -2.0010 c3         1 CAI      -0.154700
     12 C9          -6.2460    -1.3850    -2.7020 c          1 CAI       0.571300
     13 C10         -7.0990    -0.5520    -1.8220 ce         1 CAI      -0.256200
     14 C11         -7.4640     0.6880    -2.1510 c2         1 CAI      -0.080200
     15 C12         -8.1970     1.5670    -1.2300 cx         1 CAI       0.085300
     16 C13         -7.9050     3.0050    -1.1650 cx         1 CAI       0.081100
     17 C14         -8.1610     3.8130     0.0790 c3         1 CAI      -0.076400
     18 C15         -6.9010     4.1820     0.8400 c3         1 CAI       0.160100
     19 C16         -7.2150     5.0670     2.0330 c3         1 CAI      -0.119100
     20 C22         -6.2710    -3.6130    -1.5980 c3         1 CAI      -0.087100
     21 O9          -6.2060    -1.2170    -3.9030 o          1 CAI      -0.510100
     22 O12         -9.0540     2.5270    -1.8360 op         1 CAI      -0.377600
     23 O15         -6.3010     2.9430     1.2780 os         1 CAI      -0.430900
     24 C1A         -0.1560    -1.3840     0.2130 c6         1 CAI       0.319900
     25 C2A          0.8590    -0.9470     1.2640 c6         1 CAI       0.093100
     26 C3A          2.1920    -0.6160     0.5860 c6         1 CAI       0.201500
     27 C4A          2.6210    -1.7950    -0.3020 c6         1 CAI       0.129100
     28 C5A          1.4820    -2.1890    -1.2540 c6         1 CAI       0.135100
     29 C6A          1.7890    -3.4000    -2.1090 c3         1 CAI      -0.088100
     30 O1A         -1.3250    -1.7710     0.8460 os         1 CAI      -0.402600
     31 O2A          0.4120     0.1950     1.9430 oh         1 CAI      -0.604800
     32 N3A          3.2570    -0.2110     1.4750 n3         1 CAI      -0.748600
     33 O5A          0.3150    -2.4840    -0.5070 os         1 CAI      -0.425600
     34 O4          -2.5130    -0.4190     2.7050 os         1 CAI      -0.397600
     35 C1B          4.8210    -2.2850    -1.1650 c6         1 CAI       0.342900
     36 C2B          5.6690    -1.8430    -2.3480 c6         1 CAI      -0.138400
     37 C3B          6.4000    -0.5230    -2.0800 c6         1 CAI       0.166800
     38 C4B          7.1750    -0.7320    -0.7700 c6         1 CAI       0.091100
     39 C5B          6.2550    -1.1500     0.3780 c6         1 CAI       0.136100
     40 C6B          7.0320    -1.4560     1.6420 c3         1 CAI      -0.087100
     41 C7B          7.3430    -0.2060    -3.2330 c3         1 CAI      -0.086100
     42 O1B          3.7340    -1.3970    -1.0760 os         1 CAI      -0.446600
     43 O3B          5.5080     0.5680    -1.9670 oh         1 CAI      -0.593800
     44 O4B          7.8020     0.4900    -0.3820 os         1 CAI      -0.409900
     45 O5B          5.5630    -2.3410     0.0150 os         1 CAI      -0.427600
     46 C1C          9.1280     0.6050    -0.4030 c          1 CAI       0.646100
     47 C2C          9.5620     1.9760     0.0430 c3         1 CAI      -0.136400
     48 C3C         10.9890     2.0340     0.5850 c3         1 CAI      -0.052700
     49 C4C         11.3980     3.4870     0.7980 c3         1 CAI      -0.090100
     50 C5C         11.1290     1.2440     1.8830 c3         1 CAI      -0.090100
     51 O1C          9.8760    -0.2690    -0.7640 o          1 CAI      -0.544000
     52 C18         -0.9200     3.0810    -0.0170 c3         1 CAI      -0.159100
     53 C19         -2.6230    -1.5090     3.5980 c3         1 CAI       0.117700
     54 O3          -2.4530     1.6310     0.9770 os         1 CAI      -0.412900
     55 O17         -2.9680     2.3830    -1.0690 o          1 CAI      -0.544000
     56 C8A          3.4540    -1.0330     2.6450 c3         1 CAI       0.174100
     57 H201        -3.6210    -4.5050    -0.3280 hc         1 CAI       0.083200
     58 H202        -2.5460    -3.9130     0.9000 hc         1 CAI       0.083200
     59 H21         -4.7800    -2.9200     2.0360 h4         1 CAI      -0.028800
     60 H21A        -5.4340     0.9420     2.3140 hc         1 CAI       0.087200
     61 H22         -4.0420     1.7200     3.0680 hc         1 CAI       0.087200
     62 H3          -4.1780     0.8400     0.1500 h1         1 CAI       0.078700
     63 H4          -4.2300    -1.0280     1.7730 h1         1 CAI       0.047700
     64 H5          -2.3410    -0.5220    -0.4080 h1         1 CAI       0.049700
     65 H6          -2.7630    -2.5870    -1.2410 hc         1 CAI       0.069700
     66 H71         -4.4250    -0.7240    -1.1750 hc         1 CAI       0.043700
     67 H72         -5.3700    -1.6050    -0.0030 hc         1 CAI       0.043700
     68 H8          -4.6510    -2.7710    -2.7270 hc         1 CAI       0.077700
     69 H10         -7.3600    -0.9470    -0.8450 ha         1 CAI       0.133000
     70 H11         -7.1800     1.1060    -3.1130 ha         1 CAI       0.154000
     71 H12         -8.5940     1.0930    -0.3340 h1         1 CAI       0.092700
     72 H13         -7.1300     3.3970    -1.8240 h1         1 CAI       0.094700
     73 H141        -8.8610     3.2910     0.7370 hc         1 CAI       0.068700
     74 H142        -8.6420     4.7480    -0.2190 hc         1 CAI       0.068700
     75 H15         -6.2050     4.6940     0.1700 h1         1 CAI       0.070700
     76 H161        -6.3150     5.3620     2.5700 hc         1 CAI       0.051367
     77 H162        -7.7070     5.9780     1.6920 hc         1 CAI       0.051367
     78 H163        -7.8870     4.5620     2.7280 hc         1 CAI       0.051367
     79 H221        -6.8120    -4.0060    -2.4590 hc         1 CAI       0.044700
     80 H222        -5.6730    -4.4300    -1.1990 hc         1 CAI       0.044700
     81 H223        -7.0040    -3.3390    -0.8370 hc         1 CAI       0.044700
     82 HC1A        -0.3450    -0.5400    -0.4770 h2         1 CAI       0.031700
     83 HC2A         1.0030    -1.7940     1.9540 h1         1 CAI       0.053700
     84 HC3A         2.0030     0.2290    -0.0910 h1         1 CAI       0.067700
     85 HC4A         2.8740    -2.6620     0.3230 h1         1 CAI       0.065700
     86 HC5A         1.2870    -1.3290    -1.9160 h1         1 CAI       0.045700
     87 H6A1         0.9310    -3.6470    -2.7340 hc         1 CAI       0.048367
     88 H6A2         2.6260    -3.2050    -2.7770 hc         1 CAI       0.048367
     89 H6A3         2.0310    -4.2720    -1.4990 hc         1 CAI       0.048367
     90 H7A1         4.3410     1.4260     2.1550 h1         1 CAI       0.032200
     91 H7A2         3.2070     1.7830     0.8600 h1         1 CAI       0.032200
     92 H7A3         2.6150     1.5560     2.5110 h1         1 CAI       0.032200
     93 HO2A        -0.4740     0.0230     2.2930 ho         1 CAI       0.441000
     94 HC1B         4.4610    -3.3080    -1.3170 h2         1 CAI       0.069700
     95 H2B1         6.4060    -2.6260    -2.5420 hc         1 CAI       0.070700
     96 H2B2         5.0490    -1.7620    -3.2450 hc         1 CAI       0.070700
     97 HC4B         7.9240    -1.5150    -0.9260 h1         1 CAI       0.079700
     98 HC5B         5.5260    -0.3570     0.5790 h1         1 CAI       0.085700
     99 H6B1         7.4740    -0.5500     2.0560 hc         1 CAI       0.045367
    100 H6B2         6.3750    -1.8730     2.4040 hc         1 CAI       0.045367
    101 H6B3         7.8320    -2.1750     1.4550 hc         1 CAI       0.045367
    102 H7B1         6.7930    -0.1840    -4.1740 hc         1 CAI       0.047367
    103 H7B2         7.8210     0.7670    -3.1080 hc         1 CAI       0.047367
    104 H7B3         8.1270    -0.9590    -3.3180 hc         1 CAI       0.047367
    105 HO3B         4.7070     0.2720    -1.5180 ho         1 CAI       0.429000
    106 H2C1         9.4710     2.6340    -0.8300 hc         1 CAI       0.072200
    107 H2C2         8.8570     2.3660     0.7820 hc         1 CAI       0.072200
    108 HC3C        11.6570     1.5980    -0.1630 hc         1 CAI       0.065700
    109 H4C1        10.7560     3.9700     1.5380 hc         1 CAI       0.035367
    110 H4C2        12.4250     3.5530     1.1600 hc         1 CAI       0.035367
    111 H4C3        11.3320     4.0640    -0.1260 hc         1 CAI       0.035367
    112 H5C1        10.4900     1.6650     2.6630 hc         1 CAI       0.035367
    113 H5C2        10.8600     0.1950     1.7610 hc         1 CAI       0.035367
    114 H5C3        12.1560     1.2780     2.2470 hc         1 CAI       0.035367
    115 H181        -0.1700     2.4820     0.4970 hc         1 CAI       0.077700
    116 H182        -0.5590     3.3680    -1.0000 hc         1 CAI       0.077700
    117 H183        -1.0750     3.9890     0.5700 hc         1 CAI       0.077700
    118 H191        -1.9960    -1.2840     4.4590 h1         1 CAI       0.038367
    119 H192        -3.6530    -1.6360     3.9460 h1         1 CAI       0.038367
    120 H193        -2.2790    -2.4490     3.1600 h1         1 CAI       0.038367
    121 H8A1         3.5110    -2.0890     2.3780 h1         1 CAI       0.032200
    122 H8A2         4.4070    -0.7720     3.1080 h1         1 CAI       0.032200
    123 H8A3         2.6760    -0.9150     3.4120 h1         1 CAI       0.032200
    124 O1          -4.2920     3.8930     1.5470 o          1 CAI      -0.530000
    125 C7A          3.3430     1.2000     1.7720 c3         1 CAI       0.174100
    126 C17         -2.2200     2.3460    -0.1270 c          1 CAI       0.654100
@<TRIPOS>BOND
     1     1     2 1   
     2     1     9 1   
     3     1    57 1   
     4     1    58 1   
     5     2     3 2   
     6     2    59 1   
     7     4     5 1   
     8     4    23 1   
     9     4   124 2   
    10     5     6 1   
    11     5    60 1   
    12     5    61 1   
    13     6     7 1   
    14     6    54 1   
    15     6    62 1   
    16     7     8 1   
    17     7    34 1   
    18     7    63 1   
    19     8     9 1   
    20     8    30 1   
    21     8    64 1   
    22     9    10 1   
    23     9    65 1   
    24    10    11 1   
    25    10    66 1   
    26    10    67 1   
    27    11    12 1   
    28    11    20 1   
    29    11    68 1   
    30    12    13 1   
    31    12    21 2   
    32    13    14 2   
    33    13    69 1   
    34    14    15 1   
    35    14    70 1   
    36    15    16 1   
    37    15    22 1   
    38    15    71 1   
    39    16    17 1   
    40    16    22 1   
    41    16    72 1   
    42    17    18 1   
    43    17    73 1   
    44    17    74 1   
    45    18    19 1   
    46    18    23 1   
    47    18    75 1   
    48    19    76 1   
    49    19    77 1   
    50    19    78 1   
    51    20    79 1   
    52    20    80 1   
    53    20    81 1   
    54    24    25 1   
    55    24    30 1   
    56    24    33 1   
    57    24    82 1   
    58    25    26 1   
    59    25    31 1   
    60    25    83 1   
    61    26    27 1   
    62    26    32 1   
    63    26    84 1   
    64    27    28 1   
    65    27    42 1   
    66    27    85 1   
    67    28    29 1   
    68    28    33 1   
    69    28    86 1   
    70    29    87 1   
    71    29    88 1   
    72    29    89 1   
    73    31    93 1   
    74    32    56 1   
    75    32   125 1   
    76    34    53 1   
    77    35    36 1   
    78    35    42 1   
    79    35    45 1   
    80    35    94 1   
    81    36    37 1   
    82    36    95 1   
    83    36    96 1   
    84    37    38 1   
    85    37    41 1   
    86    37    43 1   
    87    38    39 1   
    88    38    44 1   
    89    38    97 1   
    90    39    40 1   
    91    39    45 1   
    92    39    98 1   
    93    40    99 1   
    94    40   100 1   
    95    40   101 1   
    96    41   102 1   
    97    41   103 1   
    98    41   104 1   
    99    43   105 1   
   100    44    46 1   
   101    46    47 1   
   102    46    51 2   
   103    47    48 1   
   104    47   106 1   
   105    47   107 1   
   106    48    49 1   
   107    48    50 1   
   108    48   108 1   
   109    49   109 1   
   110    49   110 1   
   111    49   111 1   
   112    50   112 1   
   113    50   113 1   
   114    50   114 1   
   115    52   115 1   
   116    52   116 1   
   117    52   117 1   
   118    52   126 1   
   119    53   118 1   
   120    53   119 1   
   121    53   120 1   
   122    54   126 1   
   123    55   126 2   
   124    56   121 1   
   125    56   122 1   
   126    56   123 1   
   127    90   125 1   
   128    91   125 1   
   129    92   125 1   
@<TRIPOS>SUBSTRUCTURE
     1 CAI         1 TEMP              0 ****  ****    0 ROOT
