@<TRIPOS>MOLECULE
CAI
  126   129     1     0     0
SMALL
No Charge or Current Charge


@<TRIPOS>ATOM
      1 C20         -3.6160    -3.4650    -0.4430 c3         1 CAI      -0.196400
      2 C21         -4.3810    -3.5600     0.8760 c          1 CAI       0.574900
      3 O21         -5.5950    -3.4210     0.9640 o          1 CAI      -0.517100
      4 C1          -5.0680     2.7410     2.3240 c          1 CAI       0.599100
      5 C2          -4.4180     1.3710     2.4970 c3         1 CAI      -0.152400
      6 C3          -3.8550     0.7760     1.1760 c3         1 CAI       0.171300
      7 C4          -3.0650    -0.5650     1.3900 c3         1 CAI       0.160300
      8 C5          -2.4020    -1.1780     0.0850 c3         1 CAI       0.158300
      9 C6          -3.2950    -2.0040    -0.9220 c3         1 CAI      -0.062700
     10 C7          -4.5350    -1.1910    -1.3930 c3         1 CAI      -0.076400
     11 C8          -5.2080    -1.5200    -2.7650 c3         1 CAI      -0.154700
     12 C9          -6.1270    -0.3410    -3.1510 c          1 CAI       0.571300
     13 C10         -7.1130     0.0860    -2.1160 ce         1 CAI      -0.306200
     14 C11         -7.3930     1.3800    -1.8380 c2         1 CAI      -0.130200
     15 C12         -8.2080     1.7850    -0.6600 cx         1 CAI       0.108500
     16 C13         -8.2680     3.2240    -0.2340 cx         1 CAI       0.104300
     17 C14         -8.4920     3.5850     1.2290 c3         1 CAI      -0.076400
     18 C15         -7.1820     3.8730     1.9950 c3         1 CAI       0.183300
     19 C16         -7.4490     4.3450     3.4420 c3         1 CAI      -0.119100
     20 C22         -6.0030    -2.8500    -2.8210 c3         1 CAI      -0.087100
     21 O9          -5.9430     0.3130    -4.1690 o          1 CAI      -0.510100
     22 O12         -9.3710     2.5990    -0.9270 op         1 CAI      -0.424000
     23 O15         -6.4140     2.6520     2.0580 os         1 CAI      -0.454100
     24 C1A         -0.0400    -1.8450    -0.1250 c6         1 CAI       0.366300
     25 C2A          0.8260    -0.8270     0.6960 c6         1 CAI       0.116300
     26 C3A          2.2440    -0.6880     0.0150 c6         1 CAI       0.201500
     27 C4A          2.8830    -2.1120    -0.1910 c6         1 CAI       0.152300
     28 C5A          1.8720    -3.0620    -0.9140 c6         1 CAI       0.158300
     29 C6A          2.3390    -4.5330    -1.0510 c3         1 CAI      -0.088100
     30 O1A         -1.3280    -2.0590     0.4800 os         1 CAI      -0.449000
     31 O2A          0.1420     0.4400     0.8650 oh         1 CAI      -0.727000
     32 N3A          3.2020     0.2520     0.7210 n3         1 CAI      -0.748600
     33 O5A          0.6310    -3.1090    -0.1860 os         1 CAI      -0.472000
     34 O4          -2.0110    -0.2650     2.3470 os         1 CAI      -0.444000
     35 C1B          5.2680    -2.9580    -0.7480 c6         1 CAI       0.389300
     36 C2B          6.3050    -2.8080    -1.8800 c6         1 CAI      -0.138400
     37 C3B          6.9920    -1.4160    -1.8620 c6         1 CAI       0.190000
     38 C4B          7.5930    -1.1570    -0.4270 c6         1 CAI       0.114300
     39 C5B          6.4930    -1.3860     0.6510 c6         1 CAI       0.159300
     40 C6B          7.0370    -1.2950     2.0990 c3         1 CAI      -0.087100
     41 C7B          8.0720    -1.3580    -2.9790 c3         1 CAI      -0.086100
     42 O1B          4.1640    -1.9940    -0.9460 os         1 CAI      -0.493000
     43 O3B          6.0070    -0.4270    -2.1870 oh         1 CAI      -0.656000
     44 O4B          8.1360     0.1820    -0.2780 os         1 CAI      -0.433100
     45 O5B          5.9020    -2.7010     0.5180 os         1 CAI      -0.474000
     46 C1C          9.4440     0.4650    -0.5730 c          1 CAI       0.597100
     47 C2C          9.7560     1.9550    -0.4050 c3         1 CAI      -0.136400
     48 C3C         10.5410     2.2630     0.9000 c3         1 CAI      -0.052700
     49 C4C         10.9200     3.7590     0.9800 c3         1 CAI      -0.090100
     50 C5C          9.7850     1.8110     2.1710 c3         1 CAI      -0.090100
     51 O1C         10.2720    -0.3640    -0.9240 o          1 CAI      -0.495000
     52 C18         -2.2870     3.5430    -0.8250 c3         1 CAI      -0.159100
     53 C19         -1.8000    -1.2530     3.3760 c3         1 CAI       0.140900
     54 O3          -2.9420     1.7260     0.5790 os         1 CAI      -0.436100
     55 O17         -4.5460     2.6740    -0.7710 o          1 CAI      -0.495000
     56 C8A          3.4670    -0.0670     2.1450 c3         1 CAI       0.174100
     57 H201        -4.1790    -4.0020    -1.2060 hc         1 CAI       0.083200
     58 H202        -2.6640    -3.9870    -0.3000 hc         1 CAI       0.083200
     59 H21         -3.7610    -3.7660     1.7760 h4         1 CAI      -0.028800
     60 H21A        -5.1790     0.6680     2.8550 hc         1 CAI       0.087200
     61 H22         -3.6110     1.4680     3.2310 hc         1 CAI       0.087200
     62 H3          -4.7110     0.5820     0.5210 h1         1 CAI       0.078700
     63 H4          -3.7670    -1.2860     1.8200 h1         1 CAI       0.047700
     64 H5          -1.9950    -0.3330    -0.4850 h1         1 CAI       0.049700
     65 H6          -2.6690    -2.1220    -1.8160 hc         1 CAI       0.069700
     66 H71         -4.2080    -0.1480    -1.4790 hc         1 CAI       0.043700
     67 H72         -5.2940    -1.2180    -0.6020 hc         1 CAI       0.043700
     68 H8          -4.4250    -1.5670    -3.5330 hc         1 CAI       0.077700
     69 H10         -7.4590    -0.6980    -1.4440 ha         1 CAI       0.183000
     70 H11         -6.9770     2.1920    -2.4380 ha         1 CAI       0.204000
     71 H12         -8.3550     1.0160     0.1000 h1         1 CAI       0.092700
     72 H13         -7.7180     3.9650    -0.8150 h1         1 CAI       0.094700
     73 H141        -9.0490     2.7910     1.7400 hc         1 CAI       0.068700
     74 H142        -9.1220     4.4820     1.2710 hc         1 CAI       0.068700
     75 H15         -6.6360     4.6580     1.4520 h1         1 CAI       0.070700
     76 H161        -6.5150     4.5980     3.9570 hc         1 CAI       0.051367
     77 H162        -8.0800     5.2420     3.4420 hc         1 CAI       0.051367
     78 H163        -7.9610     3.5650     4.0180 hc         1 CAI       0.051367
     79 H221        -6.7090    -2.8390    -3.6610 hc         1 CAI       0.044700
     80 H222        -5.3370    -3.7030    -2.9870 hc         1 CAI       0.044700
     81 H223        -6.5750    -3.0150    -1.9000 hc         1 CAI       0.044700
     82 HC1A        -0.1820    -1.4720    -1.1510 h2         1 CAI       0.031700
     83 HC2A         0.9840    -1.2810     1.6840 h1         1 CAI       0.053700
     84 HC3A         2.0660    -0.2960    -0.9980 h1         1 CAI       0.067700
     85 HC4A         3.1050    -2.5400     0.7970 h1         1 CAI       0.065700
     86 HC5A         1.6670    -2.6760    -1.9240 h1         1 CAI       0.045700
     87 H6A1         1.5110    -5.1780    -1.3680 hc         1 CAI       0.048367
     88 H6A2         3.1240    -4.6290    -1.8090 hc         1 CAI       0.048367
     89 H6A3         2.7230    -4.9220    -0.1010 hc         1 CAI       0.048367
     90 H7A1         3.8020     2.2910     0.8030 h1         1 CAI       0.032200
     91 H7A2         2.7330     1.8990    -0.5560 h1         1 CAI       0.032200
     92 H7A3         2.0740     2.0380     1.0950 h1         1 CAI       0.032200
     93 HO2A        -0.6740     0.2410     1.4020 ho         1 CAI       0.540000
     94 HC1B         4.8820    -3.9860    -0.7530 h2         1 CAI       0.069700
     95 H2B1         7.0590    -3.5990    -1.7720 hc         1 CAI       0.070700
     96 H2B2         5.8140    -2.9840    -2.8470 hc         1 CAI       0.070700
     97 HC4B         8.3910    -1.8910    -0.2360 h1         1 CAI       0.079700
     98 HC5B         5.7100    -0.6240     0.5340 h1         1 CAI       0.085700
     99 H6B1         7.3860    -0.2810     2.3240 hc         1 CAI       0.045367
    100 H6B2         6.2570    -1.5420     2.8280 hc         1 CAI       0.045367
    101 H6B3         7.8760    -1.9840     2.2540 hc         1 CAI       0.045367
    102 H7B1         7.6490    -1.6250    -3.9550 hc         1 CAI       0.047367
    103 H7B2         8.4980    -0.3530    -3.0790 hc         1 CAI       0.047367
    104 H7B3         8.8940    -2.0540    -2.7750 hc         1 CAI       0.047367
    105 HO3B         5.1830    -0.7370    -1.7340 ho         1 CAI       0.468000
    106 H2C1        10.3600     2.2750    -1.2620 hc         1 CAI       0.072200
    107 H2C2         8.8160     2.5200    -0.3830 hc         1 CAI       0.072200
    108 HC3C        11.4810     1.6950     0.8620 hc         1 CAI       0.065700
    109 H4C1        10.0220     4.3870     1.0270 hc         1 CAI       0.035367
    110 H4C2        11.5250     3.9590     1.8720 hc         1 CAI       0.035367
    111 H4C3        11.5040     4.0600     0.1020 hc         1 CAI       0.035367
    112 H5C1         8.8010     2.2910     2.2330 hc         1 CAI       0.035367
    113 H5C2         9.6420     0.7240     2.1780 hc         1 CAI       0.035367
    114 H5C3        10.3520     2.0750     3.0730 hc         1 CAI       0.035367
    115 H181        -1.4440     2.9330    -1.1680 hc         1 CAI       0.077700
    116 H182        -2.6230     4.2500    -1.5910 hc         1 CAI       0.077700
    117 H183        -1.8650     4.0540     0.0460 hc         1 CAI       0.077700
    118 H191        -0.9710    -0.9500     4.0280 h1         1 CAI       0.038367
    119 H192        -2.6980    -1.3620     3.9980 h1         1 CAI       0.038367
    120 H193        -1.5550    -2.2340     2.9510 h1         1 CAI       0.038367
    121 H8A1         3.7840    -1.1100     2.2710 h1         1 CAI       0.032200
    122 H8A2         4.2690     0.5710     2.5380 h1         1 CAI       0.032200
    123 H8A3         2.5720     0.0990     2.7590 h1         1 CAI       0.032200
    124 O1          -4.4480     3.7920     2.4160 o          1 CAI      -0.481000
    125 C7A          2.9320     1.6920     0.5040 c3         1 CAI       0.174100
    126 C17         -3.3990     2.6210    -0.3540 c          1 CAI       0.605100
@<TRIPOS>BOND
     1     1     2 1   
     2     1     9 1   
     3     1    57 1   
     4     1    58 1   
     5     2     3 2   
     6     2    59 1   
     7     4     5 1   
     8     4    23 1   
     9     4   124 2   
    10     5     6 1   
    11     5    60 1   
    12     5    61 1   
    13     6     7 1   
    14     6    54 1   
    15     6    62 1   
    16     7     8 1   
    17     7    34 1   
    18     7    63 1   
    19     8     9 1   
    20     8    30 1   
    21     8    64 1   
    22     9    10 1   
    23     9    65 1   
    24    10    11 1   
    25    10    66 1   
    26    10    67 1   
    27    11    12 1   
    28    11    20 1   
    29    11    68 1   
    30    12    13 1   
    31    12    21 2   
    32    13    14 2   
    33    13    69 1   
    34    14    15 1   
    35    14    70 1   
    36    15    16 1   
    37    15    22 1   
    38    15    71 1   
    39    16    17 1   
    40    16    22 1   
    41    16    72 1   
    42    17    18 1   
    43    17    73 1   
    44    17    74 1   
    45    18    19 1   
    46    18    23 1   
    47    18    75 1   
    48    19    76 1   
    49    19    77 1   
    50    19    78 1   
    51    20    79 1   
    52    20    80 1   
    53    20    81 1   
    54    24    25 1   
    55    24    30 1   
    56    24    33 1   
    57    24    82 1   
    58    25    26 1   
    59    25    31 1   
    60    25    83 1   
    61    26    27 1   
    62    26    32 1   
    63    26    84 1   
    64    27    28 1   
    65    27    42 1   
    66    27    85 1   
    67    28    29 1   
    68    28    33 1   
    69    28    86 1   
    70    29    87 1   
    71    29    88 1   
    72    29    89 1   
    73    31    93 1   
    74    32    56 1   
    75    32   125 1   
    76    34    53 1   
    77    35    36 1   
    78    35    42 1   
    79    35    45 1   
    80    35    94 1   
    81    36    37 1   
    82    36    95 1   
    83    36    96 1   
    84    37    38 1   
    85    37    41 1   
    86    37    43 1   
    87    38    39 1   
    88    38    44 1   
    89    38    97 1   
    90    39    40 1   
    91    39    45 1   
    92    39    98 1   
    93    40    99 1   
    94    40   100 1   
    95    40   101 1   
    96    41   102 1   
    97    41   103 1   
    98    41   104 1   
    99    43   105 1   
   100    44    46 1   
   101    46    47 1   
   102    46    51 2   
   103    47    48 1   
   104    47   106 1   
   105    47   107 1   
   106    48    49 1   
   107    48    50 1   
   108    48   108 1   
   109    49   109 1   
   110    49   110 1   
   111    49   111 1   
   112    50   112 1   
   113    50   113 1   
   114    50   114 1   
   115    52   115 1   
   116    52   116 1   
   117    52   117 1   
   118    52   126 1   
   119    53   118 1   
   120    53   119 1   
   121    53   120 1   
   122    54   126 1   
   123    55   126 2   
   124    56   121 1   
   125    56   122 1   
   126    56   123 1   
   127    90   125 1   
   128    91   125 1   
   129    92   125 1   
@<TRIPOS>SUBSTRUCTURE
     1 CAI         1 TEMP              0 ****  ****    0 ROOT
