@<TRIPOS>MOLECULE
CAL
   50    50     1     0     0
SMALL
No Charge or Current Charge


@<TRIPOS>ATOM
      1 N           -1.6750     1.0860    -1.0120 n8         1 CAL      -0.885800
      2 CA          -0.3820     0.3560    -0.9590 c3         1 CAL       0.123500
      3 CB           0.4700     0.7050    -2.2110 c3         1 CAL      -0.109400
      4 CG          -0.1410     0.3470    -3.6060 c6         1 CAL      -0.059700
      5 CD1          0.7810     0.8550    -4.7510 c6         1 CAL      -0.073400
      6 CD2         -0.4080    -1.1790    -3.7710 c6         1 CAL      -0.073400
      7 CE1          0.1990     0.5240    -6.1480 c6         1 CAL      -0.072900
      8 CE2         -0.9850    -1.5120    -5.1700 c6         1 CAL      -0.072900
      9 CZ          -0.0620    -0.9940    -6.2980 c6         1 CAL      -0.073400
     10 CH           0.3710     0.6610     0.3770 c3         1 CAL       0.157100
     11 OH           0.3170     2.0770     0.5810 oh         1 CAL      -0.600800
     12 CM          -0.2680    -0.0540     1.6020 c3         1 CAL      -0.073400
     13 CA2          0.4880     0.1430     2.9550 c3         1 CAL      -0.189700
     14 CB2         -0.1510    -0.6550     4.1330 c3         1 CAL      -0.052400
     15 CG2         -1.6300    -0.3220     4.4920 c3         1 CAL      -0.067700
     16 CD3         -2.1360    -1.2400     5.6280 c3         1 CAL      -0.081100
     17 CD4         -1.8480     1.1670     4.8560 c3         1 CAL      -0.081100
     18 C            1.9940    -0.2050     2.8330 c          1 CAL       0.924600
     19 O            2.3140    -1.3380     2.4960 o          1 CAL      -0.843800
     20 OXT          2.8200     0.6650     3.0780 o          1 CAL      -0.843800
     21 H           -2.3260     0.6670    -0.3420 hn         1 CAL       0.324300
     22 H2          -2.1070     0.9200    -1.9260 hn         1 CAL       0.324300
     23 HA          -0.5930    -0.7220    -0.9850 h1         1 CAL       0.061700
     24 HB2          0.6940     1.7790    -2.1840 hc         1 CAL       0.053700
     25 HB3          1.4390     0.2010    -2.1120 hc         1 CAL       0.053700
     26 HG          -1.0990     0.8800    -3.6850 hc         1 CAL       0.028700
     27 HD12         0.9220     1.9410    -4.6650 hc         1 CAL       0.042700
     28 HD13         1.7790     0.4040    -4.6550 hc         1 CAL       0.042700
     29 HD23         0.5240    -1.7400    -3.6150 hc         1 CAL       0.042700
     30 HD22        -1.1150    -1.5300    -3.0080 hc         1 CAL       0.042700
     31 HE12        -0.7380     1.0780    -6.2990 hc         1 CAL       0.031450
     32 HE13         0.8920     0.8620    -6.9300 hc         1 CAL       0.031450
     33 HE23        -1.9830    -1.0640    -5.2740 hc         1 CAL       0.031450
     34 HE22        -1.1190    -2.5980    -5.2690 hc         1 CAL       0.031450
     35 HZ2         -0.5170    -1.1990    -7.2770 hc         1 CAL       0.032700
     36 HZ3          0.8930    -1.5380    -6.2760 hc         1 CAL       0.032700
     37 HH           1.4110     0.3190     0.2750 h1         1 CAL       0.097700
     38 HO          -0.4880     2.3350     0.0760 ho         1 CAL       0.388000
     39 HM1         -0.3240    -1.1280     1.3860 hc         1 CAL       0.034200
     40 HM2         -1.3010     0.2950     1.7100 hc         1 CAL       0.034200
     41 HA2          0.4370     1.2060     3.2180 hc         1 CAL       0.042700
     42 HB21         0.4650    -0.4970     5.0270 hc         1 CAL       0.039700
     43 HB22        -0.0830    -1.7260     3.9040 hc         1 CAL       0.039700
     44 HG2         -2.2530    -0.5420     3.6170 hc         1 CAL       0.035700
     45 HD31        -3.1950    -1.0480     5.8400 hc         1 CAL       0.021533
     46 HD32        -2.0350    -2.2950     5.3490 hc         1 CAL       0.021533
     47 HD33        -1.5660    -1.0720     6.5500 hc         1 CAL       0.021533
     48 HD41        -1.1940     1.4670     5.6830 hc         1 CAL       0.021533
     49 HD42        -1.6450     1.8180     3.9990 hc         1 CAL       0.021533
     50 HD43        -2.8870     1.3420     5.1610 hc         1 CAL       0.021533
@<TRIPOS>BOND
     1     1     2 1   
     2     1    21 1   
     3     1    22 1   
     4     2     3 1   
     5     2    10 1   
     6     2    23 1   
     7     3     4 1   
     8     3    24 1   
     9     3    25 1   
    10     4     5 1   
    11     4     6 1   
    12     4    26 1   
    13     5     7 1   
    14     5    27 1   
    15     5    28 1   
    16     6     8 1   
    17     6    29 1   
    18     6    30 1   
    19     7     9 1   
    20     7    31 1   
    21     7    32 1   
    22     8     9 1   
    23     8    33 1   
    24     8    34 1   
    25     9    35 1   
    26     9    36 1   
    27    10    11 1   
    28    10    12 1   
    29    10    37 1   
    30    11    38 1   
    31    12    13 1   
    32    12    39 1   
    33    12    40 1   
    34    13    14 1   
    35    13    18 1   
    36    13    41 1   
    37    14    15 1   
    38    14    42 1   
    39    14    43 1   
    40    15    16 1   
    41    15    17 1   
    42    15    44 1   
    43    16    45 1   
    44    16    46 1   
    45    16    47 1   
    46    17    48 1   
    47    17    49 1   
    48    17    50 1   
    49    18    19 1   
    50    18    20 1   
@<TRIPOS>SUBSTRUCTURE
     1 CAL         1 TEMP              0 ****  ****    0 ROOT
