@<TRIPOS>MOLECULE
CAL
   50    50     1     0     0
SMALL
bcc


@<TRIPOS>ATOM
      1 N           -1.8720     0.6650    -0.9300 n8         1 CAL      -0.885800
      2 CA          -0.4880     0.2040    -0.9740 c3         1 CAL       0.123500
      3 CB           0.2980     0.7140    -2.1860 c3         1 CAL      -0.109400
      4 CG          -0.2410     0.2930    -3.5520 c6         1 CAL      -0.059700
      5 CD1          0.5570     0.9710    -4.6670 c6         1 CAL      -0.073400
      6 CD2         -0.2280    -1.2250    -3.7420 c6         1 CAL      -0.073400
      7 CE1          0.0820     0.5640    -6.0580 c6         1 CAL      -0.072900
      8 CE2         -0.7020    -1.6360    -5.1330 c6         1 CAL      -0.072900
      9 CZ           0.1090    -0.9510    -6.2280 c6         1 CAL      -0.073400
     10 CH           0.2260     0.5710     0.3340 c3         1 CAL       0.157100
     11 OH           0.2070     1.9730     0.5500 oh         1 CAL      -0.600800
     12 CM          -0.3290    -0.1910     1.5320 c3         1 CAL      -0.073400
     13 CA2          0.4470     0.0380     2.8270 c3         1 CAL      -0.189700
     14 CB2         -0.2260    -0.6570     4.0190 c3         1 CAL      -0.052400
     15 CG2         -1.5860    -0.0980     4.4470 c3         1 CAL      -0.067700
     16 CD3         -2.1890    -0.9740     5.5420 c3         1 CAL      -0.081100
     17 CD4         -1.4870     1.3500     4.9160 c3         1 CAL      -0.081100
     18 C            1.8990    -0.4740     2.7290 c          1 CAL       0.924600
     19 O            2.0680    -1.5930     2.2010 o          1 CAL      -0.843800
     20 OXT          2.7950     0.2470     3.2160 o          1 CAL      -0.843800
     21 H           -2.4250     0.1630    -1.6110 hn         1 CAL       0.324300
     22 H2          -1.9170     1.6370    -1.2150 hn         1 CAL       0.324300
     23 HA          -0.5120    -0.8900    -1.0090 h1         1 CAL       0.061700
     24 HB2          0.3330     1.8090    -2.1400 hc         1 CAL       0.053700
     25 HB3          1.3370     0.3750    -2.1020 hc         1 CAL       0.053700
     26 HG          -1.2820     0.6340    -3.6440 hc         1 CAL       0.028700
     27 HD12         0.4990     2.0580    -4.5520 hc         1 CAL       0.042700
     28 HD13         1.6170     0.7070    -4.5570 hc         1 CAL       0.042700
     29 HD23         0.7920    -1.5940    -3.5780 hc         1 CAL       0.042700
     30 HD22        -0.8540    -1.7120    -2.9890 hc         1 CAL       0.042700
     31 HE12        -0.9400     0.9270    -6.2150 hc         1 CAL       0.031450
     32 HE13         0.7000     1.0430    -6.8210 hc         1 CAL       0.031450
     33 HE23        -1.7590    -1.3680    -5.2460 hc         1 CAL       0.031450
     34 HE22        -0.6470    -2.7220    -5.2410 hc         1 CAL       0.031450
     35 HZ2         -0.2700    -1.2320    -7.2140 hc         1 CAL       0.032700
     36 HZ3          1.1460    -1.3000    -6.1810 hc         1 CAL       0.032700
     37 HH           1.2820     0.3080     0.2100 h1         1 CAL       0.097700
     38 HO          -0.6950     2.2130     0.7910 ho         1 CAL       0.388000
     39 HM1         -0.3170    -1.2610     1.3030 hc         1 CAL       0.034200
     40 HM2         -1.3830     0.0790     1.6570 hc         1 CAL       0.034200
     41 HA2          0.4860     1.1110     3.0340 hc         1 CAL       0.042700
     42 HB21         0.4420    -0.6020     4.8870 hc         1 CAL       0.039700
     43 HB22        -0.3360    -1.7220     3.7880 hc         1 CAL       0.039700
     44 HG2         -2.2650    -0.1290     3.5880 hc         1 CAL       0.035700
     45 HD31        -3.1620    -0.5990     5.8620 hc         1 CAL       0.021533
     46 HD32        -2.3260    -2.0010     5.1970 hc         1 CAL       0.021533
     47 HD33        -1.5400    -1.0050     6.4210 hc         1 CAL       0.021533
     48 HD41        -0.7910     1.4400     5.7560 hc         1 CAL       0.021533
     49 HD42        -1.1340     2.0160     4.1270 hc         1 CAL       0.021533
     50 HD43        -2.4570     1.7250     5.2490 hc         1 CAL       0.021533
@<TRIPOS>BOND
     1     1     2 1   
     2     1    21 1   
     3     1    22 1   
     4     2     3 1   
     5     2    10 1   
     6     2    23 1   
     7     3     4 1   
     8     3    24 1   
     9     3    25 1   
    10     4     5 1   
    11     4     6 1   
    12     4    26 1   
    13     5     7 1   
    14     5    27 1   
    15     5    28 1   
    16     6     8 1   
    17     6    29 1   
    18     6    30 1   
    19     7     9 1   
    20     7    31 1   
    21     7    32 1   
    22     8     9 1   
    23     8    33 1   
    24     8    34 1   
    25     9    35 1   
    26     9    36 1   
    27    10    11 1   
    28    10    12 1   
    29    10    37 1   
    30    11    38 1   
    31    12    13 1   
    32    12    39 1   
    33    12    40 1   
    34    13    14 1   
    35    13    18 1   
    36    13    41 1   
    37    14    15 1   
    38    14    42 1   
    39    14    43 1   
    40    15    16 1   
    41    15    17 1   
    42    15    44 1   
    43    16    45 1   
    44    16    46 1   
    45    16    47 1   
    46    17    48 1   
    47    17    49 1   
    48    17    50 1   
    49    18    19 1   
    50    18    20 1   
@<TRIPOS>SUBSTRUCTURE
     1 CAL         1 TEMP              0 ****  ****    0 ROOT
