@<TRIPOS>MOLECULE
CAM
   27    28     1     0     0
SMALL
bcc


@<TRIPOS>ATOM
      1 C1          -0.5290     0.5350    -0.2090 c5         1 CAM      -0.158000
      2 C2           0.1570    -0.1650    -1.3640 c          1 CAM       0.580100
      3 O           -0.1660    -0.1260    -2.5270 o          1 CAM      -0.514100
      4 C3           1.3440    -0.9150    -0.7800 c5         1 CAM      -0.189400
      5 C4           1.2380    -0.5590     0.7060 c5         1 CAM      -0.061700
      6 C5           1.6570     0.9120     0.8320 c5         1 CAM      -0.079400
      7 C6           0.4810     1.6580     0.1580 c5         1 CAM      -0.071400
      8 C7          -0.2930    -0.4960     0.9300 c5         1 CAM      -0.042000
      9 C8          -1.0130    -1.8260     0.7000 c3         1 CAM      -0.079600
     10 C9          -0.6860     0.0040     2.3160 c3         1 CAM      -0.079600
     11 C10         -1.9340     1.0060    -0.4910 c3         1 CAM      -0.061100
     12 H31          2.2810    -0.5970    -1.2450 hc         1 CAM       0.072700
     13 H32          1.2420    -1.9850    -0.9770 hc         1 CAM       0.072700
     14 H4           1.7740    -1.2420     1.3660 hc         1 CAM       0.071700
     15 H51          1.7750     1.2100     1.8740 hc         1 CAM       0.047200
     16 H52          2.6110     1.1050     0.3400 hc         1 CAM       0.047200
     17 H61          0.0030     2.3670     0.8360 hc         1 CAM       0.050700
     18 H62          0.7880     2.2300    -0.7200 hc         1 CAM       0.050700
     19 H81         -0.6650    -2.5750     1.4130 hc         1 CAM       0.036533
     20 H82         -2.0870    -1.7080     0.8510 hc         1 CAM       0.036533
     21 H83         -0.8740    -2.2410    -0.2990 hc         1 CAM       0.036533
     22 H91         -0.3430    -0.7010     3.0770 hc         1 CAM       0.036533
     23 H92         -0.2750     0.9800     2.5680 hc         1 CAM       0.036533
     24 H93         -1.7720     0.0750     2.4080 hc         1 CAM       0.036533
     25 H101        -1.9490     1.7340    -1.3040 hc         1 CAM       0.041700
     26 H102        -2.5880     0.1800    -0.7780 hc         1 CAM       0.041700
     27 H103        -2.3680     1.4880     0.3860 hc         1 CAM       0.041700
@<TRIPOS>BOND
     1     1     2 1   
     2     1     7 1   
     3     1     8 1   
     4     1    11 1   
     5     2     3 2   
     6     2     4 1   
     7     4     5 1   
     8     4    12 1   
     9     4    13 1   
    10     5     6 1   
    11     5     8 1   
    12     5    14 1   
    13     6     7 1   
    14     6    15 1   
    15     6    16 1   
    16     7    17 1   
    17     7    18 1   
    18     8     9 1   
    19     8    10 1   
    20     9    19 1   
    21     9    20 1   
    22     9    21 1   
    23    10    22 1   
    24    10    23 1   
    25    10    24 1   
    26    11    25 1   
    27    11    26 1   
    28    11    27 1   
@<TRIPOS>SUBSTRUCTURE
     1 CAM         1 TEMP              0 ****  ****    0 ROOT
