@<TRIPOS>MOLECULE
CAM
   27    28     1     0     0
SMALL
No Charge or Current Charge


@<TRIPOS>ATOM
      1 C1          -0.4710     0.5590    -0.2390 c5         1 CAM      -0.158000
      2 C2           0.1800    -0.1380    -1.4740 c          1 CAM       0.580100
      3 O           -0.4550    -0.5660    -2.4310 o          1 CAM      -0.514100
      4 C3           1.3780    -0.8670    -0.8380 c5         1 CAM      -0.189400
      5 C4           1.2500    -0.5740     0.6990 c5         1 CAM      -0.061700
      6 C5           1.6990     0.9230     0.8450 c5         1 CAM      -0.079400
      7 C6           0.5140     1.7080     0.1830 c5         1 CAM      -0.071400
      8 C7          -0.2930    -0.4860     0.9220 c5         1 CAM      -0.042000
      9 C8          -1.0360    -1.8440     0.7010 c3         1 CAM      -0.079600
     10 C9          -0.7310    -0.0110     2.3490 c3         1 CAM      -0.079600
     11 C10         -1.9220     1.0380    -0.5120 c3         1 CAM      -0.061100
     12 H31          2.3030    -0.4380    -1.2380 hc         1 CAM       0.072700
     13 H32          1.3600    -1.9290    -1.1070 hc         1 CAM       0.072700
     14 H4           1.7880    -1.2760     1.3480 hc         1 CAM       0.071700
     15 H51          1.8280     1.2040     1.8960 hc         1 CAM       0.047200
     16 H52          2.6600     1.1320     0.3610 hc         1 CAM       0.047200
     17 H61          0.0560     2.4110     0.8890 hc         1 CAM       0.050700
     18 H62          0.8440     2.3030    -0.6770 hc         1 CAM       0.050700
     19 H81         -0.7290    -2.5830     1.4510 hc         1 CAM       0.036533
     20 H82         -2.1220    -1.7200     0.7910 hc         1 CAM       0.036533
     21 H83         -0.8520    -2.2940    -0.2800 hc         1 CAM       0.036533
     22 H91         -0.4130    -0.7310     3.1130 hc         1 CAM       0.036533
     23 H92         -0.3250     0.9620     2.6440 hc         1 CAM       0.036533
     24 H93         -1.8220     0.0750     2.4170 hc         1 CAM       0.036533
     25 H101        -1.9490     1.7620    -1.3350 hc         1 CAM       0.041700
     26 H102        -2.5790     0.2030    -0.7820 hc         1 CAM       0.041700
     27 H103        -2.3530     1.5260     0.3700 hc         1 CAM       0.041700
@<TRIPOS>BOND
     1     1     2 1   
     2     1     7 1   
     3     1     8 1   
     4     1    11 1   
     5     2     3 2   
     6     2     4 1   
     7     4     5 1   
     8     4    12 1   
     9     4    13 1   
    10     5     6 1   
    11     5     8 1   
    12     5    14 1   
    13     6     7 1   
    14     6    15 1   
    15     6    16 1   
    16     7    17 1   
    17     7    18 1   
    18     8     9 1   
    19     8    10 1   
    20     9    19 1   
    21     9    20 1   
    22     9    21 1   
    23    10    22 1   
    24    10    23 1   
    25    10    24 1   
    26    11    25 1   
    27    11    26 1   
    28    11    27 1   
@<TRIPOS>SUBSTRUCTURE
     1 CAM         1 TEMP              0 ****  ****    0 ROOT
