@<TRIPOS>MOLECULE
CAQ
   14    14     1     0     0
SMALL
bcc


@<TRIPOS>ATOM
      1 C1           0.7010    -0.0340    -1.9700 ca         1 CAQ      -0.125500
      2 C2           1.4170    -0.0080    -0.7780 ca         1 CAQ      -0.129000
      3 C3           0.7430     0.0310     0.4330 ca         1 CAQ       0.059600
      4 O3           1.4520     0.0320     1.5850 oh         1 CAQ      -0.511600
      5 C4          -0.6590     0.0640     0.4550 ca         1 CAQ       0.059600
      6 O4          -1.3030     0.1710     1.6570 oh         1 CAQ      -0.511600
      7 C5          -1.3590     0.0470    -0.7410 ca         1 CAQ      -0.129000
      8 C6          -0.6830    -0.0020    -1.9560 ca         1 CAQ      -0.125500
      9 H1           1.2400    -0.0660    -2.9080 ha         1 CAQ       0.135500
     10 H2           2.5000    -0.0210    -0.7810 ha         1 CAQ       0.144500
     11 HO3          0.8920     0.3710     2.2960 ho         1 CAQ       0.426500
     12 HO4         -1.3590    -0.6920     2.0880 ho         1 CAQ       0.426500
     13 H5          -2.4420     0.0730    -0.7060 ha         1 CAQ       0.144500
     14 H6          -1.2420    -0.0200    -2.8830 ha         1 CAQ       0.135500
@<TRIPOS>BOND
     1     1     2 ar  
     2     1     8 ar  
     3     1     9 1   
     4     2     3 ar  
     5     2    10 1   
     6     3     4 1   
     7     3     5 ar  
     8     4    11 1   
     9     5     6 1   
    10     5     7 ar  
    11     6    12 1   
    12     7     8 ar  
    13     7    13 1   
    14     8    14 1   
@<TRIPOS>SUBSTRUCTURE
     1 CAQ         1 TEMP              0 ****  ****    0 ROOT
