@<TRIPOS>MOLECULE
CAQ
   14    14     1     0     0
SMALL
No Charge or Current Charge


@<TRIPOS>ATOM
      1 C1           0.6980     0.0150    -1.9870 ca         1 CAQ      -0.107500
      2 C2           1.4780     0.1470    -0.8250 ca         1 CAQ      -0.111000
      3 C3           0.8620     0.1230     0.4380 ca         1 CAQ       0.059600
      4 O3           1.6140     0.2510     1.5700 oh         1 CAQ      -0.550600
      5 C4          -0.5360    -0.0330     0.5430 ca         1 CAQ       0.059600
      6 O4          -1.1280    -0.0550     1.7790 oh         1 CAQ      -0.550600
      7 C5          -1.3140    -0.1650    -0.6210 ca         1 CAQ      -0.111000
      8 C6          -0.6960    -0.1410    -1.8850 ca         1 CAQ      -0.107500
      9 H1           1.1730     0.0330    -2.9660 ha         1 CAQ       0.117500
     10 H2           2.5560     0.2680    -0.9030 ha         1 CAQ       0.126500
     11 HO3          0.9820     0.2060     2.3240 ho         1 CAQ       0.465500
     12 HO4         -2.0980    -0.1710     1.6660 ho         1 CAQ       0.465500
     13 H5          -2.3930    -0.2870    -0.5540 ha         1 CAQ       0.126500
     14 H6          -1.2980    -0.2440    -2.7860 ha         1 CAQ       0.117500
@<TRIPOS>BOND
     1     1     2 ar  
     2     1     8 ar  
     3     1     9 1   
     4     2     3 ar  
     5     2    10 1   
     6     3     4 1   
     7     3     5 ar  
     8     4    11 1   
     9     5     6 1   
    10     5     7 ar  
    11     6    12 1   
    12     7     8 ar  
    13     7    13 1   
    14     8    14 1   
@<TRIPOS>SUBSTRUCTURE
     1 CAQ         1 TEMP              0 ****  ****    0 ROOT
