@<TRIPOS>MOLECULE
CAT
   50    49     1     0     0
SMALL
abcg2


@<TRIPOS>ATOM
      1 C1          -4.7440     0.6170     0.0110 c3         1 CAT       0.099600
      2 C2          -3.5210    -0.2800     0.0020 c3         1 CAT      -0.100400
      3 C3          -2.2550     0.5740     0.0020 c3         1 CAT      -0.075400
      4 C4          -0.9900    -0.2760    -0.0040 c3         1 CAT      -0.074400
      5 C5           0.2870     0.5540    -0.0030 c3         1 CAT      -0.074400
      6 C6           1.5500    -0.2990    -0.0060 c3         1 CAT      -0.073400
      7 C7           2.8330     0.5210    -0.0050 c3         1 CAT      -0.073400
      8 C8           4.0920    -0.3380    -0.0090 c3         1 CAT      -0.074400
      9 C9           5.3800     0.4760    -0.0040 c3         1 CAT      -0.074400
     10 C10          6.6350    -0.3890    -0.0070 c3         1 CAT      -0.075400
     11 C11          7.9280     0.4180     0.0000 c3         1 CAT      -0.074400
     12 C12          9.1700    -0.4620    -0.0040 c3         1 CAT      -0.089100
     13 CA1         -6.2240    -0.9370     1.2320 c3         1 CAT       0.074567
     14 CB1         -7.1440     0.9420     0.0190 c3         1 CAT       0.074567
     15 CC1         -6.2320    -0.9360    -1.2010 c3         1 CAT       0.074567
     16 NE1         -6.0740    -0.0940     0.0150 n4         1 CAT      -0.496000
     17 H11         -4.7400     1.2560     0.8940 hx         1 CAT       0.092700
     18 H12         -4.7490     1.2620    -0.8690 hx         1 CAT       0.092700
     19 H21         -3.5140    -0.9220    -0.8810 hc         1 CAT       0.063200
     20 H22         -3.5070    -0.9300     0.8790 hc         1 CAT       0.063200
     21 H31         -2.2520     1.2260     0.8810 hc         1 CAT       0.051700
     22 H32         -2.2560     1.2330    -0.8730 hc         1 CAT       0.051700
     23 H41         -0.9980    -0.9300    -0.8820 hc         1 CAT       0.044700
     24 H42         -0.9950    -0.9370     0.8690 hc         1 CAT       0.044700
     25 H51          0.2940     1.2100     0.8750 hc         1 CAT       0.042700
     26 H52          0.2920     1.2160    -0.8760 hc         1 CAT       0.042700
     27 H61          1.5400    -0.9560    -0.8830 hc         1 CAT       0.039700
     28 H62          1.5410    -0.9610     0.8670 hc         1 CAT       0.039700
     29 H71          2.8450     1.1770     0.8730 hc         1 CAT       0.039700
     30 H72          2.8430     1.1830    -0.8780 hc         1 CAT       0.039700
     31 H81          4.0810    -0.9930    -0.8870 hc         1 CAT       0.038700
     32 H82          4.0800    -1.0020     0.8630 hc         1 CAT       0.038700
     33 H91          5.3930     1.1300     0.8750 hc         1 CAT       0.038700
     34 H92          5.3940     1.1400    -0.8750 hc         1 CAT       0.038700
     35 H101         6.6220    -1.0430    -0.8860 hc         1 CAT       0.037700
     36 H102         6.6190    -1.0540     0.8640 hc         1 CAT       0.037700
     37 H111         7.9420     1.0710     0.8790 hc         1 CAT       0.037700
     38 H112         7.9450     1.0820    -0.8700 hc         1 CAT       0.037700
     39 H121         9.1910    -1.1140     0.8720 hc         1 CAT       0.033700
     40 H122         9.1960    -1.1010    -0.8890 hc         1 CAT       0.033700
     41 H123        10.0860     0.1300     0.0030 hc         1 CAT       0.033700
     42 HA11        -6.0760    -0.3180     2.1140 hx         1 CAT       0.097256
     43 HA12        -7.2260    -1.3560     1.2460 hx         1 CAT       0.097256
     44 HA13        -5.4990    -1.7440     1.2190 hx         1 CAT       0.097256
     45 HB11        -7.0480     1.5590    -0.8710 hx         1 CAT       0.097256
     46 HB12        -8.1140     0.4520     0.0240 hx         1 CAT       0.097256
     47 HB13        -7.0410     1.5600     0.9070 hx         1 CAT       0.097256
     48 HC11        -5.5110    -1.7480    -1.1890 hx         1 CAT       0.097256
     49 HC12        -7.2370    -1.3510    -1.2120 hx         1 CAT       0.097256
     50 HC13        -6.0820    -0.3200    -2.0830 hx         1 CAT       0.097256
@<TRIPOS>BOND
     1     1     2 1   
     2     1    16 1   
     3     1    17 1   
     4     1    18 1   
     5     2     3 1   
     6     2    19 1   
     7     2    20 1   
     8     3     4 1   
     9     3    21 1   
    10     3    22 1   
    11     4     5 1   
    12     4    23 1   
    13     4    24 1   
    14     5     6 1   
    15     5    25 1   
    16     5    26 1   
    17     6     7 1   
    18     6    27 1   
    19     6    28 1   
    20     7     8 1   
    21     7    29 1   
    22     7    30 1   
    23     8     9 1   
    24     8    31 1   
    25     8    32 1   
    26     9    10 1   
    27     9    33 1   
    28     9    34 1   
    29    10    11 1   
    30    10    35 1   
    31    10    36 1   
    32    11    12 1   
    33    11    37 1   
    34    11    38 1   
    35    12    39 1   
    36    12    40 1   
    37    12    41 1   
    38    13    16 1   
    39    13    42 1   
    40    13    43 1   
    41    13    44 1   
    42    14    16 1   
    43    14    45 1   
    44    14    46 1   
    45    14    47 1   
    46    15    16 1   
    47    15    48 1   
    48    15    49 1   
    49    15    50 1   
@<TRIPOS>SUBSTRUCTURE
     1 CAT         1 TEMP              0 ****  ****    0 ROOT
