@<TRIPOS>MOLECULE
CAT
   50    49     1     0     0
SMALL
No Charge or Current Charge


@<TRIPOS>ATOM
      1 C1          -4.8280     0.6290     0.0110 c3         1 CAT       0.099600
      2 C2          -3.5630    -0.2560     0.0070 c3         1 CAT      -0.100400
      3 C3          -2.2650     0.5780     0.0070 c3         1 CAT      -0.075400
      4 C4          -0.9890    -0.2930     0.0030 c3         1 CAT      -0.074400
      5 C5           0.3110     0.5410     0.0030 c3         1 CAT      -0.074400
      6 C6           1.5870    -0.3290    -0.0010 c3         1 CAT      -0.073400
      7 C7           2.8870     0.5050    -0.0010 c3         1 CAT      -0.073400
      8 C8           4.1630    -0.3650    -0.0040 c3         1 CAT      -0.074400
      9 C9           5.4630     0.4680    -0.0040 c3         1 CAT      -0.074400
     10 C10          6.7390    -0.4020    -0.0070 c3         1 CAT      -0.075400
     11 C11          8.0390     0.4320    -0.0070 c3         1 CAT      -0.074400
     12 C12          9.3120    -0.4360    -0.0100 c3         1 CAT      -0.089100
     13 CA1         -6.3440    -0.9550     1.2650 c3         1 CAT       0.074567
     14 CB1         -7.2990     0.9860     0.0160 c3         1 CAT       0.074567
     15 CC1         -6.3480    -0.9490    -1.2450 c3         1 CAT       0.074567
     16 NE1         -6.1930    -0.0780     0.0120 n4         1 CAT      -0.496000
     17 H11         -4.7950     1.2710     0.8940 hx         1 CAT       0.092700
     18 H12         -4.7980     1.2750    -0.8690 hx         1 CAT       0.092700
     19 H21         -3.5730    -0.9040    -0.8770 hc         1 CAT       0.063200
     20 H22         -3.5700    -0.9080     0.8880 hc         1 CAT       0.063200
     21 H31         -2.2550     1.2290     0.8910 hc         1 CAT       0.051700
     22 H32         -2.2580     1.2330    -0.8730 hc         1 CAT       0.051700
     23 H41         -1.0000    -0.9440    -0.8800 hc         1 CAT       0.044700
     24 H42         -0.9970    -0.9480     0.8840 hc         1 CAT       0.044700
     25 H51          0.3210     1.1920     0.8860 hc         1 CAT       0.042700
     26 H52          0.3190     1.1960    -0.8770 hc         1 CAT       0.042700
     27 H61          1.5760    -0.9800    -0.8840 hc         1 CAT       0.039700
     28 H62          1.5790    -0.9840     0.8800 hc         1 CAT       0.039700
     29 H71          2.8970     1.1560     0.8830 hc         1 CAT       0.039700
     30 H72          2.8950     1.1590    -0.8810 hc         1 CAT       0.039700
     31 H81          4.1520    -1.0160    -0.8870 hc         1 CAT       0.038700
     32 H82          4.1550    -1.0200     0.8760 hc         1 CAT       0.038700
     33 H91          5.4730     1.1190     0.8790 hc         1 CAT       0.038700
     34 H92          5.4710     1.1230    -0.8850 hc         1 CAT       0.038700
     35 H101         6.7290    -1.0530    -0.8910 hc         1 CAT       0.037700
     36 H102         6.7310    -1.0560     0.8730 hc         1 CAT       0.037700
     37 H111         8.0540     1.0830     0.8760 hc         1 CAT       0.037700
     38 H112         8.0510     1.0860    -0.8880 hc         1 CAT       0.037700
     39 H121         9.3470    -1.0780     0.8780 hc         1 CAT       0.033700
     40 H122         9.3450    -1.0740    -0.9010 hc         1 CAT       0.033700
     41 H123        10.2070     0.1980    -0.0100 hc         1 CAT       0.033700
     42 HA11        -6.2240    -0.3340     2.1550 hx         1 CAT       0.097256
     43 HA12        -7.3350    -1.4130     1.2670 hx         1 CAT       0.097256
     44 HA13        -5.5810    -1.7350     1.2550 hx         1 CAT       0.097256
     45 HB11        -7.2030     1.6100    -0.8750 hx         1 CAT       0.097256
     46 HB12        -8.2740     0.4940     0.0160 hx         1 CAT       0.097256
     47 HB13        -7.2000     1.6060     0.9100 hx         1 CAT       0.097256
     48 HC11        -5.5850    -1.7290    -1.2410 hx         1 CAT       0.097256
     49 HC12        -7.3390    -1.4070    -1.2460 hx         1 CAT       0.097256
     50 HC13        -6.2310    -0.3240    -2.1330 hx         1 CAT       0.097256
@<TRIPOS>BOND
     1     1     2 1   
     2     1    16 1   
     3     1    17 1   
     4     1    18 1   
     5     2     3 1   
     6     2    19 1   
     7     2    20 1   
     8     3     4 1   
     9     3    21 1   
    10     3    22 1   
    11     4     5 1   
    12     4    23 1   
    13     4    24 1   
    14     5     6 1   
    15     5    25 1   
    16     5    26 1   
    17     6     7 1   
    18     6    27 1   
    19     6    28 1   
    20     7     8 1   
    21     7    29 1   
    22     7    30 1   
    23     8     9 1   
    24     8    31 1   
    25     8    32 1   
    26     9    10 1   
    27     9    33 1   
    28     9    34 1   
    29    10    11 1   
    30    10    35 1   
    31    10    36 1   
    32    11    12 1   
    33    11    37 1   
    34    11    38 1   
    35    12    39 1   
    36    12    40 1   
    37    12    41 1   
    38    13    16 1   
    39    13    42 1   
    40    13    43 1   
    41    13    44 1   
    42    14    16 1   
    43    14    45 1   
    44    14    46 1   
    45    14    47 1   
    46    15    16 1   
    47    15    48 1   
    48    15    49 1   
    49    15    50 1   
@<TRIPOS>SUBSTRUCTURE
     1 CAT         1 TEMP              0 ****  ****    0 ROOT
