@<TRIPOS>MOLECULE
CAU
   44    46     1     0     0
SMALL
No Charge or Current Charge


@<TRIPOS>ATOM
      1 O17          2.3510    -0.9360    -0.8020 oh         1 CAU      -0.627000
      2 C16          2.3520    -0.0760     0.3470 c3         1 CAU       0.169300
      3 C18          3.8130     0.4100     0.5300 c3         1 CAU       0.122800
      4 N19          4.7660    -0.7090     0.2820 n7         1 CAU      -0.851400
      5 C20          6.1970    -0.3550     0.2680 c3         1 CAU       0.174500
      6 C21          7.0220    -1.6490     0.4050 c3         1 CAU      -0.090600
      7 C22          6.5590     0.4180    -1.0190 c3         1 CAU      -0.090600
      8 C15          1.3490     1.0950     0.1880 c3         1 CAU       0.126600
      9 O14          0.0120     0.5610     0.1560 os         1 CAU      -0.324100
     10 C13         -1.0950     1.3730     0.0300 ca         1 CAU       0.203100
     11 C12         -1.0200     2.7870    -0.0560 ca         1 CAU      -0.247000
     12 C11         -2.1980     3.5640    -0.1810 ca         1 CAU      -0.041000
     13 C10         -3.4650     2.9450    -0.2210 ca         1 CAU      -0.183000
     14 C8          -3.5060     1.5520    -0.1340 ca         1 CAU       0.030800
     15 C9          -2.3660     0.7610    -0.0120 cp         1 CAU      -0.121000
     16 N7          -4.5950     0.6700    -0.1450 na         1 CAU      -0.233600
     17 C3          -4.1840    -0.6660    -0.0350 ca         1 CAU      -0.014200
     18 C4          -2.7930    -0.6370     0.0490 cp         1 CAU      -0.066000
     19 C2          -4.9270    -1.8490    -0.0070 ca         1 CAU      -0.147000
     20 C1          -4.2130    -3.0610     0.1120 ca         1 CAU      -0.083000
     21 C6          -2.7980    -3.0570     0.1980 ca         1 CAU      -0.148000
     22 C5          -2.0740    -1.8430     0.1670 ca         1 CAU      -0.044000
     23 H17          3.3080    -1.1760    -0.8730 ho         1 CAU       0.442000
     24 H16          2.0740    -0.6490     1.2430 h1         1 CAU       0.081700
     25 H181         3.9910     1.2300    -0.1780 h1         1 CAU       0.032700
     26 H182         3.9400     0.8160     1.5430 h1         1 CAU       0.032700
     27 H191         4.6360    -1.3970     1.0360 hn         1 CAU       0.412000
     28 H20          6.4310     0.2800     1.1340 h1         1 CAU       0.014700
     29 H211         6.8290    -2.3280    -0.4350 hc         1 CAU       0.038700
     30 H212         8.0940    -1.4200     0.4220 hc         1 CAU       0.038700
     31 H213         6.7740    -2.1710     1.3370 hc         1 CAU       0.038700
     32 H221         6.2870    -0.1590    -1.9110 hc         1 CAU       0.038700
     33 H222         6.0460     1.3850    -1.0610 hc         1 CAU       0.038700
     34 H223         7.6370     0.6150    -1.0550 hc         1 CAU       0.038700
     35 H151         1.4650     1.7820     1.0360 h1         1 CAU       0.036700
     36 H152         1.5710     1.6460    -0.7360 h1         1 CAU       0.036700
     37 H12         -0.0620     3.2980    -0.0280 ha         1 CAU       0.114000
     38 H11         -2.1260     4.6480    -0.2470 ha         1 CAU       0.108000
     39 H10         -4.3760     3.5320    -0.3160 ha         1 CAU       0.118000
     40 H7          -5.5620     0.9630    -0.2240 hn         1 CAU       0.352000
     41 H2          -6.0130    -1.8380    -0.0750 ha         1 CAU       0.112000
     42 H1          -4.7530    -4.0050     0.1370 ha         1 CAU       0.109000
     43 H6          -2.2620    -3.9990     0.2880 ha         1 CAU       0.113000
     44 H5          -0.9880    -1.8440     0.2310 ha         1 CAU       0.136000
@<TRIPOS>BOND
     1     1     2 1   
     2     1    23 1   
     3     2     3 1   
     4     2     8 1   
     5     2    24 1   
     6     3     4 1   
     7     3    25 1   
     8     3    26 1   
     9     4     5 1   
    10     4    27 1   
    11     5     6 1   
    12     5     7 1   
    13     5    28 1   
    14     6    29 1   
    15     6    30 1   
    16     6    31 1   
    17     7    32 1   
    18     7    33 1   
    19     7    34 1   
    20     8     9 1   
    21     8    35 1   
    22     8    36 1   
    23     9    10 1   
    24    10    11 ar  
    25    10    15 ar  
    26    11    12 ar  
    27    11    37 1   
    28    12    13 ar  
    29    12    38 1   
    30    13    14 ar  
    31    13    39 1   
    32    14    15 ar  
    33    14    16 1   
    34    15    18 1   
    35    16    17 1   
    36    16    40 1   
    37    17    18 ar  
    38    17    19 ar  
    39    18    22 ar  
    40    19    20 ar  
    41    19    41 1   
    42    20    21 ar  
    43    20    42 1   
    44    21    22 ar  
    45    21    43 1   
    46    22    44 1   
@<TRIPOS>SUBSTRUCTURE
     1 CAU         1 TEMP              0 ****  ****    0 ROOT
