@<TRIPOS>MOLECULE
CAU
   44    46     1     0     0
SMALL
bcc


@<TRIPOS>ATOM
      1 O17          2.0950    -1.1620    -0.8320 oh         1 CAU      -0.564800
      2 C16          2.3380    -0.1820     0.1460 c3         1 CAU       0.146100
      3 C18          3.7650     0.3510     0.1130 c3         1 CAU       0.122800
      4 N19          4.7310    -0.7050     0.3280 n7         1 CAU      -0.796200
      5 C20          6.1150    -0.2450     0.3770 c3         1 CAU       0.174500
      6 C21          6.9910    -1.3750     0.8990 c3         1 CAU      -0.090600
      7 C22          6.5910     0.2020    -1.0000 c3         1 CAU      -0.090600
      8 C15          1.3660     0.9840     0.0430 c3         1 CAU       0.103400
      9 O14          0.0540     0.4630     0.0940 os         1 CAU      -0.300900
     10 C13         -0.9880     1.3090     0.0730 ca         1 CAU       0.203100
     11 C12         -0.9020     2.6950     0.0790 ca         1 CAU      -0.265000
     12 C11         -2.0710     3.4690     0.0770 ca         1 CAU      -0.059000
     13 C10         -3.3340     2.9110     0.0710 ca         1 CAU      -0.201000
     14 C8          -3.4050     1.5180     0.0570 ca         1 CAU       0.030800
     15 C9          -2.2540     0.7120     0.0510 cp         1 CAU      -0.121000
     16 N7          -4.5050     0.7020     0.0420 na         1 CAU      -0.183300
     17 C3          -4.1080    -0.6100     0.0200 ca         1 CAU      -0.014200
     18 C4          -2.6970    -0.6570     0.0210 cp         1 CAU      -0.066000
     19 C2          -4.8820    -1.7660    -0.0060 ca         1 CAU      -0.165000
     20 C1          -4.2180    -2.9810    -0.0360 ca         1 CAU      -0.101000
     21 C6          -2.8200    -3.0470    -0.0440 ca         1 CAU      -0.166000
     22 C5          -2.0530    -1.8940    -0.0160 ca         1 CAU      -0.062000
     23 H17          2.4000    -0.8290    -1.6830 ho         1 CAU       0.403000
     24 H16          2.1690    -0.6760     1.1090 h1         1 CAU       0.081700
     25 H181         3.9430     0.8120    -0.8640 h1         1 CAU       0.032700
     26 H182         3.8550     1.1640     0.8530 h1         1 CAU       0.032700
     27 H191         4.5180    -1.1460     1.2160 hn         1 CAU       0.356800
     28 H20          6.2200     0.6120     1.0650 h1         1 CAU       0.014700
     29 H211         6.9690    -2.2310     0.2210 hc         1 CAU       0.038700
     30 H212         8.0270    -1.0460     0.9940 hc         1 CAU       0.038700
     31 H213         6.6610    -1.7140     1.8840 hc         1 CAU       0.038700
     32 H221         6.4900    -0.6120    -1.7210 hc         1 CAU       0.038700
     33 H222         6.0310     1.0580    -1.3770 hc         1 CAU       0.038700
     34 H223         7.6400     0.4950    -0.9620 hc         1 CAU       0.038700
     35 H151         1.5410     1.6800     0.8710 h1         1 CAU       0.036700
     36 H152         1.5210     1.5350    -0.8940 h1         1 CAU       0.036700
     37 H12          0.0540     3.2000     0.0890 ha         1 CAU       0.132000
     38 H11         -1.9720     4.5470     0.0840 ha         1 CAU       0.126000
     39 H10         -4.2230     3.5270     0.0740 ha         1 CAU       0.136000
     40 H7          -5.4600     1.0190     0.0410 hn         1 CAU       0.301700
     41 H2          -5.9630    -1.7190    -0.0060 ha         1 CAU       0.130000
     42 H1          -4.7950    -3.8960    -0.0580 ha         1 CAU       0.127000
     43 H6          -2.3330    -4.0130    -0.0740 ha         1 CAU       0.131000
     44 H5          -0.9730    -1.9540    -0.0320 ha         1 CAU       0.154000
@<TRIPOS>BOND
     1     1     2 1   
     2     1    23 1   
     3     2     3 1   
     4     2     8 1   
     5     2    24 1   
     6     3     4 1   
     7     3    25 1   
     8     3    26 1   
     9     4     5 1   
    10     4    27 1   
    11     5     6 1   
    12     5     7 1   
    13     5    28 1   
    14     6    29 1   
    15     6    30 1   
    16     6    31 1   
    17     7    32 1   
    18     7    33 1   
    19     7    34 1   
    20     8     9 1   
    21     8    35 1   
    22     8    36 1   
    23     9    10 1   
    24    10    11 ar  
    25    10    15 ar  
    26    11    12 ar  
    27    11    37 1   
    28    12    13 ar  
    29    12    38 1   
    30    13    14 ar  
    31    13    39 1   
    32    14    15 ar  
    33    14    16 1   
    34    15    18 1   
    35    16    17 1   
    36    16    40 1   
    37    17    18 ar  
    38    17    19 ar  
    39    18    22 ar  
    40    19    20 ar  
    41    19    41 1   
    42    20    21 ar  
    43    20    42 1   
    44    21    22 ar  
    45    21    43 1   
    46    22    44 1   
@<TRIPOS>SUBSTRUCTURE
     1 CAU         1 TEMP              0 ****  ****    0 ROOT
