@<TRIPOS>MOLECULE
CAV
   48    48     1     0     0
SMALL
No Charge or Current Charge


@<TRIPOS>ATOM
      1 N            2.0270    -0.9010    -1.1990 n8         1 CAV      -0.868800
      2 CA           0.6600    -0.4090    -0.9050 c3         1 CAV       0.127500
      3 CB          -0.2870    -0.7820    -2.0830 c3         1 CAV      -0.108400
      4 CG           0.0790    -0.2220    -3.4990 c6         1 CAV      -0.058700
      5 CD1         -0.9070    -0.7690    -4.5710 c6         1 CAV      -0.074400
      6 CD2          0.1050     1.3350    -3.5410 c6         1 CAV      -0.074400
      7 CE1         -0.5670    -0.2410    -5.9870 c6         1 CAV      -0.072400
      8 CE2          0.4380     1.8640    -4.9590 c6         1 CAV      -0.072400
      9 CZ          -0.5440     1.3060    -6.0150 c6         1 CAV      -0.073400
     10 CH           0.0980    -0.9110     0.4760 c3         1 CAV       0.132100
     11 OH           0.1790    -2.3460     0.5740 oh         1 CAV      -0.619800
     12 CB1          0.8010    -0.2850     1.7360 c3         1 CAV       0.141100
     13 C1          -0.0220    -0.4070     3.0550 c3         1 CAV      -0.226700
     14 C2           0.7000     0.1490     4.3360 c3         1 CAV      -0.025700
     15 CG1          1.1600     1.6260     4.2340 c3         1 CAV      -0.078600
     16 CG2         -0.1410    -0.0720     5.6160 c3         1 CAV      -0.078600
     17 OB1          2.0800    -0.9160     1.9440 oh         1 CAV      -0.619800
     18 C           -1.4360     0.1910     2.8690 c          1 CAV       0.928600
     19 O           -1.5440     1.3480     2.4860 o          1 CAV      -0.837300
     20 OXT         -2.4030    -0.5420     3.0220 o          1 CAV      -0.837300
     21 H            2.2060    -0.7910    -2.1990 hn         1 CAV       0.320800
     22 H2           2.0410    -1.9120    -1.0420 hn         1 CAV       0.320800
     23 HA           0.7020     0.6880    -0.8560 h1         1 CAV       0.085700
     24 HB2         -0.3510    -1.8760    -2.1380 hc         1 CAV       0.050200
     25 HB3         -1.2980    -0.4420    -1.8260 hc         1 CAV       0.050200
     26 HG           1.0830    -0.5950    -3.7470 hc         1 CAV       0.028700
     27 HD12        -0.8820    -1.8670    -4.5780 hc         1 CAV       0.044450
     28 HD13        -1.9360    -0.4840    -4.3120 hc         1 CAV       0.044450
     29 HD23        -0.8680     1.7340    -3.2190 hc         1 CAV       0.044450
     30 HD22         0.8510     1.7260    -2.8370 hc         1 CAV       0.044450
     31 HE12         0.4090    -0.6320    -6.3040 hc         1 CAV       0.030700
     32 HE13        -1.3040    -0.6150    -6.7110 hc         1 CAV       0.030700
     33 HE23         1.4670     1.5830    -5.2250 hc         1 CAV       0.030700
     34 HE22         0.4050     2.9620    -4.9630 hc         1 CAV       0.030700
     35 HZ2         -0.2560     1.6570    -7.0150 hc         1 CAV       0.031200
     36 HZ3         -1.5540     1.6950    -5.8250 hc         1 CAV       0.031200
     37 HH          -0.9550    -0.6020     0.4950 h1         1 CAV       0.097700
     38 HO           1.0240    -2.4950     1.0530 ho         1 CAV       0.401000
     39 HB1          0.9400     0.7850     1.5240 h1         1 CAV       0.095700
     40 H1          -0.1640    -1.4770     3.2550 hc         1 CAV       0.038700
     41 HB           1.6100    -0.4450     4.4770 hc         1 CAV      -0.001300
     42 HG11         1.7160     1.9130     5.1360 hc         1 CAV       0.026867
     43 HG12         1.8270     1.7820     3.3790 hc         1 CAV       0.026867
     44 HG13         0.3070     2.3070     4.1400 hc         1 CAV       0.026867
     45 HG21        -1.0510     0.5390     5.6050 hc         1 CAV       0.026867
     46 HG22        -0.4320    -1.1250     5.7130 hc         1 CAV       0.026867
     47 HG23         0.4370     0.1990     6.5080 hc         1 CAV       0.026867
     48 HOB1         2.4340    -0.5600     2.7850 ho         1 CAV       0.387000
@<TRIPOS>BOND
     1     1     2 1   
     2     1    21 1   
     3     1    22 1   
     4     2     3 1   
     5     2    10 1   
     6     2    23 1   
     7     3     4 1   
     8     3    24 1   
     9     3    25 1   
    10     4     5 1   
    11     4     6 1   
    12     4    26 1   
    13     5     7 1   
    14     5    27 1   
    15     5    28 1   
    16     6     8 1   
    17     6    29 1   
    18     6    30 1   
    19     7     9 1   
    20     7    31 1   
    21     7    32 1   
    22     8     9 1   
    23     8    33 1   
    24     8    34 1   
    25     9    35 1   
    26     9    36 1   
    27    10    11 1   
    28    10    12 1   
    29    10    37 1   
    30    11    38 1   
    31    12    13 1   
    32    12    17 1   
    33    12    39 1   
    34    13    14 1   
    35    13    18 1   
    36    13    40 1   
    37    14    15 1   
    38    14    16 1   
    39    14    41 1   
    40    15    42 1   
    41    15    43 1   
    42    15    44 1   
    43    16    45 1   
    44    16    46 1   
    45    16    47 1   
    46    17    48 1   
    47    18    19 1   
    48    18    20 1   
@<TRIPOS>SUBSTRUCTURE
     1 CAV         1 TEMP              0 ****  ****    0 ROOT
