@<TRIPOS>MOLECULE
CAV
   48    48     1     0     0
SMALL
bcc


@<TRIPOS>ATOM
      1 H            2.0390    -0.5170    -1.0170 n8         1 CAV      -0.301000
      2 HA           0.6000    -0.3730    -0.8310 c3         1 CAV      -0.070000
      3 HB          -0.2410    -0.8710    -2.0120 c3         1 CAV      -0.187000
      4 HG           0.0820    -0.2300    -3.3610 c6         1 CAV      -0.098000
      5 HD1         -0.7280    -0.8930    -4.4770 c6         1 CAV      -0.153000
      6 HD2         -0.1520     1.2810    -3.3700 c6         1 CAV      -0.153000
      7 HE1         -0.4300    -0.2870    -5.8440 c6         1 CAV      -0.151000
      8 HE2          0.1350     1.8980    -4.7370 c6         1 CAV      -0.151000
      9 HZ          -0.6660     1.2190    -5.8420 c6         1 CAV      -0.152000
     10 HH           0.1630    -1.0430     0.4760 c3         1 CAV       0.021000
     11 HH           0.3270    -2.4450     0.4400 oh         1 CAV      -0.347000
     12 HB1          0.8820    -0.4370     1.7110 c3         1 CAV       0.030000
     13 H1          -0.0630    -0.3050     2.9050 c3         1 CAV      -0.216000
     14 H2           0.6530     0.1260     4.2070 c3         1 CAV      -0.065000
     15 HG1          1.4200     1.4400     4.0910 c3         1 CAV      -0.196500
     16 HG2         -0.3130     0.1770     5.3890 c3         1 CAV      -0.196500
     17 HB1          2.0380    -1.2080     2.0160 oh         1 CAV      -0.347000
     18 H           -1.2360     0.6410     2.5630 c          1 CAV       0.348000
     19 H           -0.9590     1.6830     1.9320 o          1 CAV      -0.572000
     20 HXT         -2.3720     0.2980     2.9490 o          1 CAV      -0.572000
     21 H            2.3450     0.0720    -1.7810 ha         1 CAV       0.116000
     22 H2           2.2480    -1.4640    -1.3140 ha         1 CAV       0.116000
     23 HA           0.3990     0.6930    -0.6810 ha         1 CAV       0.125000
     24 HB2         -0.1120    -1.9550    -2.1000 ha         1 CAV       0.089500
     25 HB3         -1.3030    -0.7050    -1.7920 ha         1 CAV       0.089500
     26 HG           1.1440    -0.4060    -3.5850 ha         1 CAV       0.068000
     27 HD12        -0.5260    -1.9690    -4.4870 ha         1 CAV       0.083750
     28 HD13        -1.7980    -0.7830    -4.2590 ha         1 CAV       0.083750
     29 HD23        -1.1930     1.4800    -3.0880 ha         1 CAV       0.083750
     30 HD22         0.4670     1.7710    -2.6140 ha         1 CAV       0.083750
     31 HE12         0.6130    -0.4900    -6.1120 ha         1 CAV       0.070000
     32 HE13        -1.0440    -0.7660    -6.6110 ha         1 CAV       0.070000
     33 HE23         1.2050     1.8020    -4.9550 ha         1 CAV       0.070000
     34 HE22        -0.0790     2.9690    -4.7160 ha         1 CAV       0.070000
     35 HZ2         -0.4080     1.6460    -6.8140 ha         1 CAV       0.070500
     36 HZ3         -1.7330     1.4160    -5.6890 ha         1 CAV       0.070500
     37 HH          -0.9150    -0.8730     0.5700 ha         1 CAV       0.137000
     38 HO           1.2460    -2.6130     0.6850 ha         1 CAV       0.200000
     39 HB1          1.2440     0.5560     1.4390 ha         1 CAV       0.135000
     40 H1          -0.4890    -1.2990     3.1050 ha         1 CAV       0.078000
     41 HB           1.3860    -0.6540     4.4410 ha         1 CAV       0.038000
     42 HG11         1.9320     1.6600     5.0300 ha         1 CAV       0.066167
     43 HG12         2.1790     1.4050     3.3100 ha         1 CAV       0.066167
     44 HG13         0.7530     2.2740     3.8720 ha         1 CAV       0.066167
     45 HG21        -1.0110     1.0110     5.3040 ha         1 CAV       0.066167
     46 HG22        -0.9010    -0.7390     5.4650 ha         1 CAV       0.066167
     47 HG23         0.2350     0.3000     6.3250 ha         1 CAV       0.066167
     48 HOB1         1.8230    -1.8260     2.7220 ha         1 CAV       0.186000
@<TRIPOS>BOND
     1     1     2 1   
     2     1    21 1   
     3     1    22 1   
     4     2     3 1   
     5     2    10 1   
     6     2    23 1   
     7     3     4 1   
     8     3    24 1   
     9     3    25 1   
    10     4     5 1   
    11     4     6 1   
    12     4    26 1   
    13     5     7 1   
    14     5    27 1   
    15     5    28 1   
    16     6     8 1   
    17     6    29 1   
    18     6    30 1   
    19     7     9 1   
    20     7    31 1   
    21     7    32 1   
    22     8     9 1   
    23     8    33 1   
    24     8    34 1   
    25     9    35 1   
    26     9    36 1   
    27    10    11 1   
    28    10    12 1   
    29    10    37 1   
    30    11    38 1   
    31    12    13 1   
    32    12    17 1   
    33    12    39 1   
    34    13    14 1   
    35    13    18 1   
    36    13    40 1   
    37    14    15 1   
    38    14    16 1   
    39    14    41 1   
    40    15    42 1   
    41    15    43 1   
    42    15    44 1   
    43    16    45 1   
    44    16    46 1   
    45    16    47 1   
    46    17    48 1   
    47    18    19 1   
    48    18    20 1   
@<TRIPOS>SUBSTRUCTURE
     1 CAV         1 TEMP              0 ****  ****    0 ROOT
