@<TRIPOS>MOLECULE
CAW
   47    49     1     0     0
SMALL
bcc


@<TRIPOS>ATOM
      1 C9          -3.2730     0.3580    -1.8550 ca         1 CAW      -0.098000
      2 C14         -4.3640    -0.0570    -2.6410 ca         1 CAW      -0.139000
      3 C13         -5.5490    -0.3780    -2.0440 ca         1 CAW      -0.091000
      4 C12         -5.6960    -0.3030    -0.6390 ca         1 CAW      -0.045000
      5 C18         -6.9160    -0.6660    -0.0210 ca         1 CAW      -0.118000
      6 C17         -7.0550    -0.6130     1.3370 ca         1 CAW      -0.120000
      7 C16         -5.9730    -0.1950     2.1360 ca         1 CAW      -0.118000
      8 C15         -4.7810     0.1690     1.5690 ca         1 CAW      -0.112000
      9 C11         -4.6060     0.1330     0.1630 ca         1 CAW       0.002000
     10 C10         -3.3840     0.4660    -0.4900 ca         1 CAW      -0.149600
     11 C8          -2.2250     1.0180     0.2770 c          1 CAW       0.696700
     12 O8          -2.3380     1.9370     1.0540 o          1 CAW      -0.510100
     13 N2          -1.0400     0.3820    -0.0080 ns         1 CAW      -0.627500
     14 C7           0.2260     0.7530     0.4430 c          1 CAW       0.802100
     15 O7           0.4490     1.7800     1.0430 o          1 CAW      -0.551100
     16 N1           1.1690    -0.1790     0.1420 ns         1 CAW      -0.588900
     17 C1           2.5570     0.0200     0.3920 c6         1 CAW       0.287500
     18 O5           3.1650     0.4710    -0.7950 os         1 CAW      -0.417600
     19 C5           4.5370     0.7770    -0.6500 c6         1 CAW       0.157100
     20 C6           5.0260     1.3330    -1.9700 c3         1 CAW       0.149400
     21 O6           4.3320     2.5280    -2.2430 oh         1 CAW      -0.583800
     22 C4           5.3060    -0.4810    -0.2410 c6         1 CAW       0.119100
     23 O4           6.6540    -0.1300    -0.0530 oh         1 CAW      -0.591800
     24 C3           4.7000    -1.0560     1.0340 c6         1 CAW       0.116100
     25 O3           5.3900    -2.2460     1.3290 oh         1 CAW      -0.603800
     26 C2           3.2070    -1.2880     0.8540 c6         1 CAW       0.076100
     27 O2           2.6860    -1.7110     2.0860 oh         1 CAW      -0.589800
     28 H9          -2.3460     0.6230    -2.3480 ha         1 CAW       0.136000
     29 H14         -4.2550    -0.1140    -3.7160 ha         1 CAW       0.138000
     30 H13         -6.3950    -0.6980    -2.6400 ha         1 CAW       0.135000
     31 H18         -7.7380    -0.9940    -0.6450 ha         1 CAW       0.132000
     32 H17         -7.9890    -0.8970     1.8020 ha         1 CAW       0.134000
     33 H16         -6.0830    -0.1640     3.2120 ha         1 CAW       0.135000
     34 H15         -3.9700     0.4810     2.2110 ha         1 CAW       0.150000
     35 H2          -1.1100    -0.4560    -0.5670 hn         1 CAW       0.315500
     36 H1           0.9160    -0.9750    -0.4270 hn         1 CAW       0.307500
     37 HA           2.6640     0.7680     1.1860 h2         1 CAW       0.093700
     38 HB           3.0590    -2.0480     0.0700 h1         1 CAW       0.048700
     39 H5           4.6730     1.5400     0.1340 h1         1 CAW       0.068700
     40 H61C         6.1060     1.5010    -1.8980 h1         1 CAW       0.034700
     41 H62C         4.8670     0.5790    -2.7540 h1         1 CAW       0.034700
     42 H4           5.1970    -1.2270    -1.0440 h1         1 CAW       0.050700
     43 H6           4.6900     2.9000    -3.0530 ho         1 CAW       0.404000
     44 HC           7.1330    -0.9190     0.2200 ho         1 CAW       0.426000
     45 H3           4.8350    -0.3130     1.8370 h1         1 CAW       0.060700
     46 HD           5.1600    -2.5230     2.2220 ho         1 CAW       0.428000
     47 H2A          1.7990    -2.0570     1.9460 ho         1 CAW       0.417000
@<TRIPOS>BOND
     1     1     2 ar  
     2     1    10 ar  
     3     1    28 1   
     4     2     3 ar  
     5     2    29 1   
     6     3     4 ar  
     7     3    30 1   
     8     4     5 ar  
     9     4     9 ar  
    10     5     6 ar  
    11     5    31 1   
    12     6     7 ar  
    13     6    32 1   
    14     7     8 ar  
    15     7    33 1   
    16     8     9 ar  
    17     8    34 1   
    18     9    10 ar  
    19    10    11 1   
    20    11    12 2   
    21    11    13 1   
    22    13    14 1   
    23    13    35 1   
    24    14    15 2   
    25    14    16 1   
    26    16    17 1   
    27    16    36 1   
    28    17    18 1   
    29    17    26 1   
    30    17    37 1   
    31    18    19 1   
    32    19    20 1   
    33    19    22 1   
    34    19    39 1   
    35    20    21 1   
    36    20    40 1   
    37    20    41 1   
    38    21    43 1   
    39    22    23 1   
    40    22    24 1   
    41    22    42 1   
    42    23    44 1   
    43    24    25 1   
    44    24    26 1   
    45    24    45 1   
    46    25    46 1   
    47    26    27 1   
    48    26    38 1   
    49    27    47 1   
@<TRIPOS>SUBSTRUCTURE
     1 CAW         1 TEMP              0 ****  ****    0 ROOT
