@<TRIPOS>MOLECULE
CAW
   47    49     1     0     0
SMALL
No Charge or Current Charge


@<TRIPOS>ATOM
      1 C9          -3.2700     0.9570    -1.4300 ca         1 CAW      -0.080000
      2 C14         -4.3230     0.8950    -2.3530 ca         1 CAW      -0.121000
      3 C13         -5.5560     0.3510    -1.9760 ca         1 CAW      -0.073000
      4 C12         -5.7390    -0.1430    -0.6740 ca         1 CAW      -0.045000
      5 C18         -6.9860    -0.6970    -0.3270 ca         1 CAW      -0.100000
      6 C17         -7.1960    -1.2220     0.9560 ca         1 CAW      -0.102000
      7 C16         -6.1550    -1.2040     1.8930 ca         1 CAW      -0.100000
      8 C15         -4.9080    -0.6510     1.5560 ca         1 CAW      -0.094000
      9 C11         -4.6800    -0.0940     0.2720 ca         1 CAW       0.002000
     10 C10         -3.4270     0.4760    -0.1070 ca         1 CAW      -0.149600
     11 C8          -2.2620     0.6220     0.8530 c          1 CAW       0.629700
     12 O8          -2.4020     0.9650     2.0170 o          1 CAW      -0.510100
     13 N2          -1.0280     0.4210     0.2880 ns         1 CAW      -0.493500
     14 C7           0.2110     0.5230     0.8370 c          1 CAW       0.668100
     15 O7           0.4440     0.8260     1.9940 o          1 CAW      -0.551100
     16 N1           1.2080     0.2160    -0.0400 ns         1 CAW      -0.521900
     17 C1           2.6280     0.3830     0.2270 c6         1 CAW       0.310700
     18 O5           3.2520     0.3530    -1.0680 os         1 CAW      -0.464000
     19 C5           4.6930     0.5420    -1.0500 c6         1 CAW       0.180300
     20 C6           5.2030     0.6000    -2.5290 c3         1 CAW       0.172600
     21 O6           4.5580     1.6220    -3.3180 oh         1 CAW      -0.706000
     22 C4           5.3640    -0.6080    -0.2340 c6         1 CAW       0.142300
     23 O4           6.7920    -0.4530    -0.1380 oh         1 CAW      -0.714000
     24 C3           4.7460    -0.6470     1.1930 c6         1 CAW       0.139300
     25 O3           5.2950    -1.7320     1.9610 oh         1 CAW      -0.666000
     26 C2           3.1980    -0.7770     1.1170 c6         1 CAW       0.099300
     27 O2           2.6430    -0.7750     2.4550 oh         1 CAW      -0.712000
     28 H9          -2.3370     1.4190    -1.7480 ha         1 CAW       0.118000
     29 H14         -4.1860     1.2790    -3.3620 ha         1 CAW       0.120000
     30 H13         -6.3680     0.3110    -2.6990 ha         1 CAW       0.117000
     31 H18         -7.7950    -0.7270    -1.0540 ha         1 CAW       0.114000
     32 H17         -8.1610    -1.6520     1.2190 ha         1 CAW       0.116000
     33 H16         -6.3110    -1.6240     2.8850 ha         1 CAW       0.117000
     34 H15         -4.1280    -0.6840     2.3100 ha         1 CAW       0.132000
     35 H2          -1.0510     0.1400    -0.6780 hn         1 CAW       0.315500
     36 H1           0.9480    -0.0370    -0.9830 hn         1 CAW       0.307500
     37 HA           2.8050     1.3590     0.7080 h2         1 CAW       0.093700
     38 HB           2.9540    -1.7280     0.6180 h1         1 CAW       0.048700
     39 H5           4.9190     1.5080    -0.5740 h1         1 CAW       0.068700
     40 H61C         6.2870     0.7710    -2.5120 h1         1 CAW       0.034700
     41 H62C         5.0370    -0.3870    -2.9840 h1         1 CAW       0.034700
     42 H4           5.1290    -1.5600    -0.7350 h1         1 CAW       0.050700
     43 H6           4.8970     1.5300    -4.2390 ho         1 CAW       0.503000
     44 HC           7.0580    -1.0290     0.6200 ho         1 CAW       0.525000
     45 H3           4.9770     0.3090     1.6900 h1         1 CAW       0.060700
     46 HD           4.6330    -1.8870     2.6750 ho         1 CAW       0.467000
     47 H2A          1.8080    -0.2330     2.4210 ho         1 CAW       0.516000
@<TRIPOS>BOND
     1     1     2 ar  
     2     1    10 ar  
     3     1    28 1   
     4     2     3 ar  
     5     2    29 1   
     6     3     4 ar  
     7     3    30 1   
     8     4     5 ar  
     9     4     9 ar  
    10     5     6 ar  
    11     5    31 1   
    12     6     7 ar  
    13     6    32 1   
    14     7     8 ar  
    15     7    33 1   
    16     8     9 ar  
    17     8    34 1   
    18     9    10 ar  
    19    10    11 1   
    20    11    12 2   
    21    11    13 1   
    22    13    14 1   
    23    13    35 1   
    24    14    15 2   
    25    14    16 1   
    26    16    17 1   
    27    16    36 1   
    28    17    18 1   
    29    17    26 1   
    30    17    37 1   
    31    18    19 1   
    32    19    20 1   
    33    19    22 1   
    34    19    39 1   
    35    20    21 1   
    36    20    40 1   
    37    20    41 1   
    38    21    43 1   
    39    22    23 1   
    40    22    24 1   
    41    22    42 1   
    42    23    44 1   
    43    24    25 1   
    44    24    26 1   
    45    24    45 1   
    46    25    46 1   
    47    26    27 1   
    48    26    38 1   
    49    27    47 1   
@<TRIPOS>SUBSTRUCTURE
     1 CAW         1 TEMP              0 ****  ****    0 ROOT
