@<TRIPOS>MOLECULE
CAX
   31    31     1     0     0
SMALL
abcg2


@<TRIPOS>ATOM
      1 O3          17.3510   -18.4110    43.0320 oh         1 CAX      -0.673500
      2 C10         17.8160   -17.6150    41.9430 c3         1 CAX       0.396300
      3 O2          18.9410   -16.9140    42.4050 oh         1 CAX      -0.673500
      4 C9          18.1500   -18.4090    40.6780 c3         1 CAX      -0.083400
      5 C1          18.9860   -19.7080    40.6890 c5         1 CAX      -0.038700
      6 C2          20.4930   -19.6360    41.1010 c5         1 CAX      -0.033000
      7 C8          21.1980   -18.3520    40.6680 c3         1 CAX      -0.084600
      8 C7          21.2290   -20.8230    40.4540 c3         1 CAX      -0.084600
      9 C3          20.4330   -19.8050    42.6420 c5         1 CAX      -0.171700
     10 C6          21.7080   -20.1930    43.3770 c3         1 CAX      -0.067100
     11 C4          19.2700   -20.7540    42.8640 c          1 CAX       0.590100
     12 O1          19.0630   -21.3950    43.8750 o          1 CAX      -0.529100
     13 C5          18.4200   -20.8020    41.6120 c5         1 CAX      -0.182400
     14 HO3         16.4360   -18.6680    42.8580 ho         1 CAX       0.456000
     15 H10         17.0250   -16.9010    41.6790 h2         1 CAX       0.008700
     16 HO2         18.6620   -16.3570    43.1440 ho         1 CAX       0.456000
     17 H91         17.1810   -18.6830    40.2490 hc         1 CAX       0.048700
     18 H92         18.5940   -17.7000    39.9750 hc         1 CAX       0.048700
     19 H1          18.9460   -20.0510    39.6530 hc         1 CAX       0.047700
     20 H81         22.2540   -18.3910    40.9430 hc         1 CAX       0.037367
     21 H82         21.1460   -18.2390    39.5810 hc         1 CAX       0.037367
     22 H83         20.7560   -17.4730    41.1280 hc         1 CAX       0.037367
     23 H71         22.2850   -20.8170    40.7250 hc         1 CAX       0.037367
     24 H72         20.8160   -21.7880    40.7530 hc         1 CAX       0.037367
     25 H73         21.1620   -20.7520    39.3660 hc         1 CAX       0.037367
     26 H3          20.0760   -18.8500    43.0450 hc         1 CAX       0.097700
     27 H61         21.5300   -20.2200    44.4520 hc         1 CAX       0.038367
     28 H62         22.0680   -21.1760    43.0720 hc         1 CAX       0.038367
     29 H63         22.5000   -19.4660    43.1860 hc         1 CAX       0.038367
     30 H51         17.3630   -20.7090    41.8490 hc         1 CAX       0.066700
     31 H52         18.5630   -21.7940    41.1720 hc         1 CAX       0.066700
@<TRIPOS>BOND
     1     1     2 1   
     2     1    14 1   
     3     2     3 1   
     4     2     4 1   
     5     2    15 1   
     6     3    16 1   
     7     4     5 1   
     8     4    17 1   
     9     4    18 1   
    10     5     6 1   
    11     5    13 1   
    12     5    19 1   
    13     6     7 1   
    14     6     8 1   
    15     6     9 1   
    16     7    20 1   
    17     7    21 1   
    18     7    22 1   
    19     8    23 1   
    20     8    24 1   
    21     8    25 1   
    22     9    10 1   
    23     9    11 1   
    24     9    26 1   
    25    10    27 1   
    26    10    28 1   
    27    10    29 1   
    28    11    12 2   
    29    11    13 1   
    30    13    30 1   
    31    13    31 1   
@<TRIPOS>SUBSTRUCTURE
     1 CAX         1 TEMP              0 ****  ****    0 ROOT
