@<TRIPOS>MOLECULE
CAX
   31    31     1     0     0
SMALL
No Charge or Current Charge


@<TRIPOS>ATOM
      1 O3          17.2460   -18.3140    42.9890 oh         1 CAX      -0.673500
      2 C10         17.7290   -17.5600    41.8990 c3         1 CAX       0.396300
      3 O2          18.8070   -16.7950    42.3850 oh         1 CAX      -0.673500
      4 C9          18.1160   -18.4350    40.6580 c3         1 CAX      -0.083400
      5 C1          18.9770   -19.7630    40.7140 c5         1 CAX      -0.038700
      6 C2          20.5010   -19.7200    41.1300 c5         1 CAX      -0.033000
      7 C8          21.2530   -18.4250    40.7110 c3         1 CAX      -0.084600
      8 C7          21.2910   -20.8890    40.4530 c3         1 CAX      -0.084600
      9 C3          20.3440   -19.9140    42.6770 c5         1 CAX      -0.171700
     10 C6          21.6530   -20.0520    43.5020 c3         1 CAX      -0.067100
     11 C4          19.3850   -21.1220    42.8080 c          1 CAX       0.590100
     12 O1          19.8010   -22.2480    43.0600 o          1 CAX      -0.529100
     13 C5          18.3990   -20.8950    41.6400 c5         1 CAX      -0.182400
     14 HO3         16.5860   -17.7470    43.4400 ho         1 CAX       0.456000
     15 H10         16.9410   -16.8640    41.5870 h2         1 CAX       0.008700
     16 HO2         18.4190   -15.9660    42.7320 ho         1 CAX       0.456000
     17 H91         17.1600   -18.7090    40.1960 hc         1 CAX       0.048700
     18 H92         18.5770   -17.7600    39.9260 hc         1 CAX       0.048700
     19 H1          18.9240   -20.1160    39.6760 hc         1 CAX       0.047700
     20 H81         22.3220   -18.4900    40.9480 hc         1 CAX       0.037367
     21 H82         21.1670   -18.2490    39.6320 hc         1 CAX       0.037367
     22 H83         20.8780   -17.5360    41.2200 hc         1 CAX       0.037367
     23 H71         22.3290   -20.9330    40.8040 hc         1 CAX       0.037367
     24 H72         20.8440   -21.8720    40.6350 hc         1 CAX       0.037367
     25 H73         21.3270   -20.7580    39.3640 hc         1 CAX       0.037367
     26 H3          19.8080   -19.0470    43.0670 hc         1 CAX       0.097700
     27 H61         21.4290   -20.1640    44.5700 hc         1 CAX       0.038367
     28 H62         22.2400   -20.9260    43.1960 hc         1 CAX       0.038367
     29 H63         22.2870   -19.1650    43.3910 hc         1 CAX       0.038367
     30 H51         17.4400   -20.5800    42.0540 hc         1 CAX       0.066700
     31 H52         18.2410   -21.8380    41.1060 hc         1 CAX       0.066700
@<TRIPOS>BOND
     1     1     2 1   
     2     1    14 1   
     3     2     3 1   
     4     2     4 1   
     5     2    15 1   
     6     3    16 1   
     7     4     5 1   
     8     4    17 1   
     9     4    18 1   
    10     5     6 1   
    11     5    13 1   
    12     5    19 1   
    13     6     7 1   
    14     6     8 1   
    15     6     9 1   
    16     7    20 1   
    17     7    21 1   
    18     7    22 1   
    19     8    23 1   
    20     8    24 1   
    21     8    25 1   
    22     9    10 1   
    23     9    11 1   
    24     9    26 1   
    25    10    27 1   
    26    10    28 1   
    27    10    29 1   
    28    11    12 2   
    29    11    13 1   
    30    13    30 1   
    31    13    31 1   
@<TRIPOS>SUBSTRUCTURE
     1 CAX         1 TEMP              0 ****  ****    0 ROOT
