@<TRIPOS>MOLECULE
CAY
   18    17     1     0     0
SMALL
abcg2


@<TRIPOS>ATOM
      1 N            1.7720    -0.4170     1.8840 n8         1 CAY      -1.004200
      2 CA           0.5130     0.3020     1.9240 c3         1 CAY       0.033500
      3 CB          -0.4170     0.0090     0.7380 c3         1 CAY       0.034600
      4 CG          -0.6870    -0.3160    -2.0100 c3         1 CAY      -0.059400
      5 SD           0.3400     0.5740    -0.8180 ss         1 CAY      -0.467000
      6 CE          -0.2330    -0.0180    -3.4510 c          1 CAY       0.731000
      7 C           -0.2710    -0.0180     3.2220 c          1 CAY       0.721000
      8 O           -0.0190    -1.1020     3.7840 o          1 CAY      -0.746500
      9 OXT         -1.1210     0.8250     3.5690 o          1 CAY      -0.746500
     10 OF1          0.7470     0.7360    -3.5900 o          1 CAY      -0.737000
     11 OF2         -0.8990    -0.5710    -4.3450 o          1 CAY      -0.737000
     12 HN1          2.1090    -0.4690     0.9290 hn         1 CAY       0.387000
     13 HN2          1.5970    -1.3680     2.1870 hn         1 CAY       0.387000
     14 HA           0.7200     1.3790     1.9250 h1         1 CAY       0.051700
     15 HB1         -0.5980    -1.0680     0.6740 h1         1 CAY       0.045700
     16 HB2         -1.3790     0.5050     0.8770 h1         1 CAY       0.045700
     17 HG1         -0.6270    -1.3910    -1.8190 h1         1 CAY       0.029700
     18 HG2         -1.7360    -0.0330    -1.8850 h1         1 CAY       0.029700
@<TRIPOS>BOND
     1     1     2 1   
     2     1    12 1   
     3     1    13 1   
     4     2     3 1   
     5     2     7 1   
     6     2    14 1   
     7     3     5 1   
     8     3    15 1   
     9     3    16 1   
    10     4     5 1   
    11     4     6 1   
    12     4    17 1   
    13     4    18 1   
    14     6    10 1   
    15     6    11 1   
    16     7     8 1   
    17     7     9 1   
@<TRIPOS>SUBSTRUCTURE
     1 CAY         1 TEMP              0 ****  ****    0 ROOT
