@<TRIPOS>MOLECULE
CAY
   18    17     1     0     0
SMALL
No Charge or Current Charge


@<TRIPOS>ATOM
      1 N            1.8380    -0.4880     1.9640 n8         1 CAY      -1.004200
      2 CA           0.5130     0.2400     2.0100 c3         1 CAY       0.033500
      3 CB          -0.3310    -0.0960     0.7530 c3         1 CAY       0.034600
      4 CG          -0.7120    -0.2180    -2.0690 c3         1 CAY      -0.059400
      5 SD           0.5900     0.2640    -0.8200 ss         1 CAY      -0.467000
      6 CE          -0.2780    -0.0410    -3.5510 c          1 CAY       0.731000
      7 C           -0.3630     0.0510     3.3160 c          1 CAY       0.721000
      8 O           -0.7170    -1.0810     3.6270 o          1 CAY      -0.746500
      9 OXT         -0.6010     1.0350     4.0060 o          1 CAY      -0.746500
     10 OF1         -0.5070     1.0290    -4.1000 o          1 CAY      -0.737000
     11 OF2          0.2560    -0.9850    -4.1180 o          1 CAY      -0.737000
     12 HN1          2.1760    -0.4370     0.9950 hn         1 CAY       0.387000
     13 HN2          1.6620    -1.4900     2.1030 hn         1 CAY       0.387000
     14 HA           0.7440     1.3130     1.9520 h1         1 CAY       0.051700
     15 HB1         -0.6140    -1.1560     0.7660 h1         1 CAY       0.045700
     16 HB2         -1.2520     0.5020     0.7660 h1         1 CAY       0.045700
     17 HG1         -0.9810    -1.2710    -1.9110 h1         1 CAY       0.029700
     18 HG2         -1.6100     0.3890    -1.8960 h1         1 CAY       0.029700
@<TRIPOS>BOND
     1     1     2 1   
     2     1    12 1   
     3     1    13 1   
     4     2     3 1   
     5     2     7 1   
     6     2    14 1   
     7     3     5 1   
     8     3    15 1   
     9     3    16 1   
    10     4     5 1   
    11     4     6 1   
    12     4    17 1   
    13     4    18 1   
    14     6    10 1   
    15     6    11 1   
    16     7     8 1   
    17     7     9 1   
@<TRIPOS>SUBSTRUCTURE
     1 CAY         1 TEMP              0 ****  ****    0 ROOT
