@<TRIPOS>MOLECULE
CAZ
   48    49     1     0     0
SMALL
No Charge or Current Charge


@<TRIPOS>ATOM
      1 S1          -3.6750    -3.0050    -0.0710 ss         1 CAZ      -0.541000
      2 C2          -5.1790    -2.2550    -0.8050 c6         1 CAZ       0.114800
      3 C3          -5.5180    -0.9630    -0.0630 ce         1 CAZ      -0.198800
      4 C5          -6.7540    -0.7900     0.4680 c2         1 CAZ      -0.277000
      5 C4          -4.4260     0.0550     0.0140 ce         1 CAZ       0.431600
      6 C9          -4.7010     1.5660    -0.2240 c          1 CAZ       0.655700
      7 O4A         -3.7850     2.3760    -0.0930 o          1 CAZ      -0.708000
      8 O4B         -5.8190     1.9340    -0.5790 o          1 CAZ      -0.708000
      9 N5          -3.2280    -0.3340     0.3850 n2         1 CAZ      -0.596900
     10 C6          -2.6120    -1.5170    -0.2150 c6         1 CAZ       0.290500
     11 C7          -1.2390    -1.7900     0.4620 c3         1 CAZ       0.006700
     12 C8          -0.5610    -3.0220    -0.1770 c          1 CAZ       0.574900
     13 O9           0.2280    -2.9640    -1.1160 o          1 CAZ      -0.473100
     14 N10         -0.3080    -0.6270     0.4700 ns         1 CAZ      -0.444900
     15 C11          0.8800    -0.5870     1.1810 c          1 CAZ       0.523800
     16 O12          1.1960    -1.5510     1.8760 o          1 CAZ      -0.604100
     17 C13          1.8080     0.5950     0.9410 ce         1 CAZ       0.239300
     18 N16          3.0900     0.3630     0.9950 n2         1 CAZ      -0.290700
     19 O17          3.6710     0.1240    -0.2790 os         1 CAZ      -0.231000
     20 C18          5.1080    -0.1530    -0.2330 c3         1 CAZ       0.033000
     21 C14          1.3240     1.8900     0.4030 cc         1 CAZ       0.331700
     22 C15          2.1390     2.9100    -0.0540 cd         1 CAZ      -0.265000
     23 S16          1.2150     4.3110    -0.5570 ss         1 CAZ      -0.247400
     24 C17         -0.1940     3.4060    -0.0750 cd         1 CAZ       0.765300
     25 N18         -1.4250     3.8960    -0.1000 nv         1 CAZ      -1.066900
     26 N19         -0.0260     2.1960     0.3830 nc         1 CAZ      -0.736000
     27 C19          5.8300     1.0870     0.3770 c3         1 CAZ      -0.083100
     28 C20          5.3320    -1.4330     0.6300 c3         1 CAZ      -0.083100
     29 C21          5.6490    -0.4070    -1.6940 c          1 CAZ       0.730000
     30 O2A          6.8410    -0.6540    -1.8440 o          1 CAZ      -0.711000
     31 O2B          4.8730    -0.3490    -2.6420 o          1 CAZ      -0.711000
     32 HC21        -4.9870    -2.0460    -1.8670 h1         1 CAZ       0.061200
     33 HC22        -6.0010    -2.9820    -0.7380 h1         1 CAZ       0.061200
     34 HC31        -7.5280    -1.5540     0.3880 ha         1 CAZ       0.160500
     35 HC32        -7.0300     0.1180     1.0050 ha         1 CAZ       0.160500
     36 HC6         -2.4490    -1.3350    -1.2900 h2         1 CAZ       0.093700
     37 HC7         -1.4420    -2.0570     1.5070 h1         1 CAZ       0.062700
     38 HC8         -0.8240    -4.0000     0.2830 h4         1 CAZ      -0.019800
     39 H10N        -0.5810     0.2350     0.0000 hn         1 CAZ       0.362500
     40 H15C         3.2200     2.9110    -0.1140 h4         1 CAZ       0.160000
     41 H181        -1.5880     4.6570    -0.7440 hn         1 CAZ       0.515000
     42 H182        -2.1800     3.2070    -0.0350 hn         1 CAZ       0.515000
     43 H191         6.9170     0.9440     0.3680 hc         1 CAZ       0.024700
     44 H192         5.6050     1.9880    -0.2060 hc         1 CAZ       0.024700
     45 H193         5.5360     1.2630     1.4180 hc         1 CAZ       0.024700
     46 H201         5.0490    -1.2760     1.6770 hc         1 CAZ       0.024700
     47 H202         4.7480    -2.2720     0.2340 hc         1 CAZ       0.024700
     48 H203         6.3890    -1.7250     0.6210 hc         1 CAZ       0.024700
@<TRIPOS>BOND
     1     1     2 1   
     2     1    10 1   
     3     2     3 1   
     4     2    32 1   
     5     2    33 1   
     6     3     4 2   
     7     3     5 1   
     8     4    34 1   
     9     4    35 1   
    10     5     6 1   
    11     5     9 2   
    12     6     7 1   
    13     6     8 1   
    14     9    10 1   
    15    10    11 1   
    16    10    36 1   
    17    11    12 1   
    18    11    14 1   
    19    11    37 1   
    20    12    13 2   
    21    12    38 1   
    22    14    15 1   
    23    14    39 1   
    24    15    16 2   
    25    15    17 1   
    26    17    18 2   
    27    17    21 1   
    28    18    19 1   
    29    19    20 1   
    30    20    27 1   
    31    20    28 1   
    32    20    29 1   
    33    21    22 2   
    34    21    26 1   
    35    22    23 1   
    36    22    40 1   
    37    23    24 1   
    38    24    25 1   
    39    24    26 2   
    40    25    41 1   
    41    25    42 1   
    42    27    43 1   
    43    27    44 1   
    44    27    45 1   
    45    28    46 1   
    46    28    47 1   
    47    28    48 1   
    48    29    30 1   
    49    29    31 1   
@<TRIPOS>SUBSTRUCTURE
     1 CAZ         1 TEMP              0 ****  ****    0 ROOT
