@<TRIPOS>MOLECULE
CAZ
   48    49     1     0     0
SMALL
bcc


@<TRIPOS>ATOM
      1 S1          -3.5230    -2.8390     0.0110 ss         1 CAZ      -0.445200
      2 C2          -4.7990    -2.1700    -1.0940 c6         1 CAZ       0.066900
      3 C3          -5.0750    -0.7510    -0.7140 ce         1 CAZ      -0.198800
      4 C5          -6.3150    -0.3000    -0.5280 c2         1 CAZ      -0.177000
      5 C4          -3.9040     0.1350    -0.5490 ce         1 CAZ       0.431600
      6 C9          -4.1220     1.6450    -0.5230 c          1 CAZ       0.866300
      7 O4A         -4.0160     2.1860     0.5970 o          1 CAZ      -0.813300
      8 O4B         -4.3670     2.1700    -1.6150 o          1 CAZ      -0.813300
      9 N5          -2.6940    -0.2440    -0.4740 n2         1 CAZ      -0.596900
     10 C6          -2.2640    -1.6050    -0.4620 c6         1 CAZ       0.242600
     11 C7          -1.0940    -1.7260     0.5320 c3         1 CAZ       0.006700
     12 C8          -0.4570    -3.1010     0.3950 c          1 CAZ       0.574900
     13 O9           0.2340    -3.4100    -0.5380 o          1 CAZ      -0.473100
     14 N10         -0.1450    -0.6850     0.2330 ns         1 CAZ      -0.511900
     15 C11          0.9640    -0.5790     0.9800 c          1 CAZ       0.590800
     16 O12          1.3080    -1.4240     1.7870 o          1 CAZ      -0.604100
     17 C13          1.7740     0.6750     0.7500 ce         1 CAZ       0.239300
     18 N16          2.9610     0.6650     0.2900 n2         1 CAZ      -0.389200
     19 O17          3.4170    -0.5580    -0.0260 os         1 CAZ      -0.109300
     20 C18          4.7640    -0.5070    -0.5360 c3         1 CAZ       0.009800
     21 C14          1.1920     1.9700     1.1190 cc         1 CAZ       0.397000
     22 C15          1.8980     3.0890     1.4250 cd         1 CAZ      -0.203400
     23 S16          0.8040     4.3830     1.7540 ss         1 CAZ      -0.392300
     24 C17         -0.5370     3.2980     1.4530 cd         1 CAZ       0.765300
     25 N18         -1.8080     3.7080     1.5800 nv         1 CAZ      -0.956500
     26 N19         -0.1720     2.0890     1.1450 nc         1 CAZ      -0.736000
     27 C19          4.8340     0.3890    -1.7680 c3         1 CAZ      -0.083100
     28 C20          5.7080    -0.0150     0.5540 c3         1 CAZ      -0.083100
     29 C21          5.1160    -1.9620    -0.9490 c          1 CAZ       0.940600
     30 O2A          6.3080    -2.1310    -1.2760 o          1 CAZ      -0.816300
     31 O2B          4.2090    -2.8070    -0.9430 o          1 CAZ      -0.816300
     32 HC21        -4.4480    -2.2480    -2.1260 h1         1 CAZ       0.061200
     33 HC22        -5.6840    -2.7950    -0.9930 h1         1 CAZ       0.061200
     34 HC31        -7.1700    -0.9550    -0.6370 ha         1 CAZ       0.110500
     35 HC32        -6.5290     0.7260    -0.2580 ha         1 CAZ       0.110500
     36 HC6         -1.8920    -1.8570    -1.4620 h2         1 CAZ       0.093700
     37 HC7         -1.4860    -1.6210     1.5510 h1         1 CAZ       0.062700
     38 HC8         -0.7060    -3.8150     1.1970 h4         1 CAZ      -0.019800
     39 H10N        -0.5500     0.1630    -0.1490 hn         1 CAZ       0.362500
     40 H15C         2.9660     3.2230     1.4800 h4         1 CAZ       0.178000
     41 H181        -2.0040     4.6930     1.6110 hn         1 CAZ       0.459800
     42 H182        -2.5530     3.1120     1.2100 hn         1 CAZ       0.459800
     43 H191         5.8420     0.3650    -2.1800 hc         1 CAZ       0.024700
     44 H192         4.1470     0.0500    -2.5460 hc         1 CAZ       0.024700
     45 H193         4.5930     1.4250    -1.5260 hc         1 CAZ       0.024700
     46 H201         5.4490     0.9950     0.8760 hc         1 CAZ       0.024700
     47 H202         5.6820    -0.6680     1.4290 hc         1 CAZ       0.024700
     48 H203         6.7300     0.0010     0.1820 hc         1 CAZ       0.024700
@<TRIPOS>BOND
     1     1     2 1   
     2     1    10 1   
     3     2     3 1   
     4     2    32 1   
     5     2    33 1   
     6     3     4 2   
     7     3     5 1   
     8     4    34 1   
     9     4    35 1   
    10     5     6 1   
    11     5     9 2   
    12     6     7 1   
    13     6     8 1   
    14     9    10 1   
    15    10    11 1   
    16    10    36 1   
    17    11    12 1   
    18    11    14 1   
    19    11    37 1   
    20    12    13 2   
    21    12    38 1   
    22    14    15 1   
    23    14    39 1   
    24    15    16 2   
    25    15    17 1   
    26    17    18 2   
    27    17    21 1   
    28    18    19 1   
    29    19    20 1   
    30    20    27 1   
    31    20    28 1   
    32    20    29 1   
    33    21    22 2   
    34    21    26 1   
    35    22    23 1   
    36    22    40 1   
    37    23    24 1   
    38    24    25 1   
    39    24    26 2   
    40    25    41 1   
    41    25    42 1   
    42    27    43 1   
    43    27    44 1   
    44    27    45 1   
    45    28    46 1   
    46    28    47 1   
    47    28    48 1   
    48    29    30 1   
    49    29    31 1   
@<TRIPOS>SUBSTRUCTURE
     1 CAZ         1 TEMP              0 ****  ****    0 ROOT
