@<TRIPOS>MOLECULE
CB0
    6     5     1     0     0
SMALL
bcc


@<TRIPOS>ATOM
      1 BR1         -1.7820    -0.1320     0.0270 br         1 CB0      -0.059700
      2 C02         -0.6900     1.3850     0.0080 c2         1 CB0      -0.100300
      3 C03          0.6320     1.3650    -0.0290 c2         1 CB0      -0.100300
      4 BR4          1.6770    -0.1840    -0.0690 br         1 CB0      -0.059700
      5 H02         -1.2170     2.3320     0.0310 h4         1 CB0       0.160000
      6 H03          1.1880     2.2950    -0.0380 h4         1 CB0       0.160000
@<TRIPOS>BOND
     1     1     2 1   
     2     2     3 2   
     3     2     5 1   
     4     3     4 1   
     5     3     6 1   
@<TRIPOS>SUBSTRUCTURE
     1 CB0         1 TEMP              0 ****  ****    0 ROOT
