@<TRIPOS>MOLECULE
CB0
    6     5     1     0     0
SMALL
No Charge or Current Charge


@<TRIPOS>ATOM
      1 Br1         -1.7840    -0.1620     0.0270 br         1 CB0      -0.059700
      2 C02         -0.7000     1.4120     0.0090 c2         1 CB0      -0.150300
      3 C03          0.6430     1.3910    -0.0290 c2         1 CB0      -0.150300
      4 Br4          1.6780    -0.2140    -0.0700 br         1 CB0      -0.059700
      5 H02         -1.2790     2.3360     0.0320 h4         1 CB0       0.210000
      6 H03          1.2500     2.2980    -0.0390 h4         1 CB0       0.210000
@<TRIPOS>BOND
     1     1     2 1   
     2     2     3 2   
     3     2     5 1   
     4     3     4 1   
     5     3     6 1   
@<TRIPOS>SUBSTRUCTURE
     1 CB0         1 TEMP              0 ****  ****    0 ROOT
