@<TRIPOS>MOLECULE
CB1
   26    27     1     0     0
SMALL
No Charge or Current Charge


@<TRIPOS>ATOM
      1 C           -9.0670   -15.5170    51.3940 ca         1 CB1       0.035000
      2 C1          -7.9780   -15.2820    50.5320 ca         1 CB1      -0.187200
      3 C2          -8.0010   -14.1840    49.6270 ca         1 CB1      -0.018600
      4 C4          -9.1460   -13.3470    49.6310 ca         1 CB1      -0.169000
      5 C5         -10.2390   -13.5840    50.4840 ca         1 CB1       0.385000
      6 C8         -10.1860   -14.6640    51.3780 ca         1 CB1      -0.224200
      7 N           -6.7970   -16.1770    50.6500 no         1 CB1       0.684200
      8 O1          -7.0080   -17.3960    50.6380 o          1 CB1      -0.382000
      9 O2          -5.7430   -15.6670    51.0530 o          1 CB1      -0.382000
     10 C3          -6.8680   -13.9180    48.6390 c          1 CB1       0.621700
     11 N1          -6.7510   -12.6700    48.1280 nt         1 CB1      -0.588000
     12 O           -6.1030   -14.7820    48.2420 o          1 CB1      -0.568100
     13 N6         -11.3560   -12.7540    50.4160 nm         1 CB1      -0.730400
     14 C7         -11.9040   -12.1310    49.2040 cx         1 CB1       0.120800
     15 C9         -12.7010   -13.1510    49.9850 cx         1 CB1       0.120800
     16 N3         -11.2940   -14.9220    52.3160 no         1 CB1       0.679200
     17 O3         -11.7220   -16.0810    52.3760 o          1 CB1      -0.383500
     18 O4         -11.5440   -14.0550    53.1630 o          1 CB1      -0.383500
     19 H1          -9.0330   -16.3510    52.0970 ha         1 CB1       0.186000
     20 H41         -9.2070   -12.5090    48.9440 ha         1 CB1       0.144000
     21 HN11        -7.3540   -11.9280    48.4470 hn         1 CB1       0.327500
     22 HN12        -6.0180   -12.4820    47.4600 hn         1 CB1       0.327500
     23 H71        -11.4870   -12.4340    48.2420 h1         1 CB1       0.096200
     24 H72        -12.1730   -11.0760    49.2770 h1         1 CB1       0.096200
     25 H91        -13.5320   -12.8150    50.6070 h1         1 CB1       0.096200
     26 H92        -12.8160   -14.1530    49.5670 h1         1 CB1       0.096200
@<TRIPOS>BOND
     1     1     2 ar  
     2     1     6 ar  
     3     1    19 1   
     4     2     3 ar  
     5     2     7 1   
     6     3     4 ar  
     7     3    10 1   
     8     4     5 ar  
     9     4    20 1   
    10     5     6 ar  
    11     5    13 1   
    12     6    16 1   
    13     7     8 1   
    14     7     9 1   
    15    10    11 1   
    16    10    12 2   
    17    11    21 1   
    18    11    22 1   
    19    13    14 1   
    20    13    15 1   
    21    14    15 1   
    22    14    23 1   
    23    14    24 1   
    24    15    25 1   
    25    15    26 1   
    26    16    17 1   
    27    16    18 1   
@<TRIPOS>SUBSTRUCTURE
     1 CB1         1 TEMP              0 ****  ****    0 ROOT
