@<TRIPOS>MOLECULE
CB1
   26    27     1     0     0
SMALL
abcg2


@<TRIPOS>ATOM
      1 C           -9.0710   -15.4670    51.3350 ca         1 CB1       0.035000
      2 C1          -8.0140   -15.1970    50.4930 ca         1 CB1      -0.187200
      3 C2          -8.0750   -14.1330    49.5760 ca         1 CB1      -0.018600
      4 C4          -9.2110   -13.3570    49.5490 ca         1 CB1      -0.169000
      5 C5         -10.3140   -13.5850    50.4010 ca         1 CB1       0.385000
      6 C8         -10.2020   -14.6680    51.3060 ca         1 CB1      -0.224200
      7 N           -6.8170   -16.0100    50.6230 no         1 CB1       0.684200
      8 O1          -6.9040   -17.0870    51.2040 o          1 CB1      -0.382000
      9 O2          -5.7720   -15.5720    50.1560 o          1 CB1      -0.382000
     10 C3          -7.0360   -13.8910    48.5040 c          1 CB1       0.621700
     11 N1          -6.3300   -12.7610    48.6270 nt         1 CB1      -0.588000
     12 O           -6.9490   -14.6690    47.5620 o          1 CB1      -0.568100
     13 N6         -11.3810   -12.7450    50.3250 nm         1 CB1      -0.730400
     14 C7         -11.9980   -12.2960    49.0910 cx         1 CB1       0.120800
     15 C9         -12.7650   -13.0990    50.0930 cx         1 CB1       0.120800
     16 N3         -11.2400   -14.9840    52.2770 no         1 CB1       0.679200
     17 O3         -11.2910   -16.1310    52.7090 o          1 CB1      -0.383500
     18 O4         -11.9970   -14.0910    52.6360 o          1 CB1      -0.383500
     19 H1          -9.0090   -16.2790    52.0420 ha         1 CB1       0.186000
     20 H41         -9.2850   -12.5490    48.8340 ha         1 CB1       0.144000
     21 HN11        -6.4150   -12.1700    49.4390 hn         1 CB1       0.327500
     22 HN12        -5.6400   -12.5270    47.9290 hn         1 CB1       0.327500
     23 H71        -11.6870   -12.7870    48.1760 h1         1 CB1       0.096200
     24 H72        -12.1710   -11.2300    49.0210 h1         1 CB1       0.096200
     25 H91        -13.4860   -12.6110    50.7360 h1         1 CB1       0.096200
     26 H92        -12.9700   -14.1360    49.8540 h1         1 CB1       0.096200
@<TRIPOS>BOND
     1     1     2 ar  
     2     1     6 ar  
     3     1    19 1   
     4     2     3 ar  
     5     2     7 1   
     6     3     4 ar  
     7     3    10 1   
     8     4     5 ar  
     9     4    20 1   
    10     5     6 ar  
    11     5    13 1   
    12     6    16 1   
    13     7     8 1   
    14     7     9 1   
    15    10    11 1   
    16    10    12 2   
    17    11    21 1   
    18    11    22 1   
    19    13    14 1   
    20    13    15 1   
    21    14    15 1   
    22    14    23 1   
    23    14    24 1   
    24    15    25 1   
    25    15    26 1   
    26    16    17 1   
    27    16    18 1   
@<TRIPOS>SUBSTRUCTURE
     1 CB1         1 TEMP              0 ****  ****    0 ROOT
