@<TRIPOS>MOLECULE
CB3
   56    58     1     0     0
SMALL
bcc


@<TRIPOS>ATOM
      1 N1          48.2270    34.3130    23.0670 na         1 CB3      -0.740600
      2 C2          48.3940    34.5040    24.3970 cc         1 CB3       0.903100
      3 NA2         49.1730    33.6360    25.0470 nv         1 CB3      -0.959800
      4 N3          47.8220    35.4740    25.0690 nd         1 CB3      -0.794100
      5 C4          47.0060    36.3640    24.4450 c          1 CB3       0.734100
      6 O4          46.4700    37.2760    25.0640 o          1 CB3      -0.536100
      7 C4A         46.7830    36.1960    22.9940 ca         1 CB3      -0.215600
      8 C5          45.9560    37.0610    22.2770 ca         1 CB3      -0.009000
      9 C6          45.7520    36.8940    20.9230 ca         1 CB3      -0.139300
     10 C7          46.4020    35.8350    20.2780 ca         1 CB3      -0.078000
     11 C8          47.2230    34.9650    20.9630 ca         1 CB3      -0.198000
     12 C8A         47.4150    35.1480    22.3330 ca         1 CB3       0.170600
     13 C9          44.8490    37.7980    20.1100 c3         1 CB3       0.294100
     14 N10         44.3850    38.9860    20.7850 nh         1 CB3      -0.703000
     15 C11         47.0710    42.0890    21.7490 ca         1 CB3      -0.145600
     16 C12         45.7630    42.0900    22.2280 ca         1 CB3      -0.058000
     17 C13         44.8760    41.0730    21.9250 ca         1 CB3      -0.212500
     18 C14         45.2590    39.9980    21.1060 ca         1 CB3       0.164600
     19 C15         46.5830    39.9940    20.6320 ca         1 CB3      -0.212500
     20 C16         47.4570    41.0110    20.9550 ca         1 CB3      -0.058000
     21 O           49.2840    42.8960    21.9790 o          1 CB3      -0.653100
     22 N           47.5980    44.3250    22.4590 ns         1 CB3      -0.500900
     23 CA          48.3740    45.4110    23.0150 c3         1 CB3      -0.048300
     24 CB          48.6270    46.5280    21.9920 c3         1 CB3      -0.048400
     25 CG          49.3670    46.0810    20.7430 c3         1 CB3      -0.201400
     26 CD          49.6710    47.1870    19.7130 c          1 CB3       0.923600
     27 OE1         49.3230    48.3530    19.9870 o          1 CB3      -0.870800
     28 OE2         50.2520    46.8120    18.6720 o          1 CB3      -0.870800
     29 CT          47.6310    46.0020    24.2410 c          1 CB3       0.925600
     30 O1          48.3100    46.7410    24.9760 o          1 CB3      -0.851300
     31 O2          46.4210    45.7180    24.3610 o          1 CB3      -0.851300
     32 CP1         43.0260    39.0100    21.2780 c3         1 CB3       0.324900
     33 CP2         42.8900    38.6500    22.6940 c1         1 CB3      -0.187100
     34 CP3         42.7900    38.3540    23.8540 c1         1 CB3      -0.130500
     35 HN1         48.6930    33.5480    22.6000 hn         1 CB3       0.434800
     36 HN21        49.3780    33.8110    26.0150 hn         1 CB3       0.445800
     37 HN22        49.7190    32.9370    24.5720 hn         1 CB3       0.445800
     38 H5          45.4770    37.8680    22.8140 ha         1 CB3       0.184000
     39 H7          46.2600    35.6910    19.2120 ha         1 CB3       0.124000
     40 H8          47.7160    34.1510    20.4460 ha         1 CB3       0.122000
     41 H91         45.3560    38.0690    19.1780 h1         1 CB3       0.045700
     42 H92         43.9690    37.2320    19.7990 h1         1 CB3       0.045700
     43 H12         45.4110    42.8730    22.8900 ha         1 CB3       0.153500
     44 H13         43.8870    41.1240    22.3570 ha         1 CB3       0.117000
     45 H15         46.9470    39.1890    20.0100 ha         1 CB3       0.117000
     46 H16         48.4690    40.9630    20.5740 ha         1 CB3       0.153500
     47 HN          46.6030    44.4450    22.5760 hn         1 CB3       0.320500
     48 HA          49.3370    45.0110    23.3410 h1         1 CB3       0.055700
     49 HB1         47.6660    46.9720    21.7130 hc         1 CB3       0.045200
     50 HB2         49.1930    47.3140    22.4930 hc         1 CB3       0.045200
     51 HG1         50.3150    45.6080    21.0250 hc         1 CB3       0.018200
     52 HG2         48.8010    45.2950    20.2330 hc         1 CB3       0.018200
     53 HP11        42.5810    39.9940    21.1120 h1         1 CB3       0.055700
     54 HP12        42.4330    38.3180    20.6800 h1         1 CB3       0.055700
     55 HP3         42.7010    38.0880    24.8830 ha         1 CB3       0.166500
     56 C           48.0830    43.1370    22.0770 c          1 CB3       0.664700
@<TRIPOS>BOND
     1     1     2 1   
     2     1    12 1   
     3     1    35 1   
     4     2     3 1   
     5     2     4 2   
     6     3    36 1   
     7     3    37 1   
     8     4     5 1   
     9     5     6 2   
    10     5     7 1   
    11     7     8 ar  
    12     7    12 ar  
    13     8     9 ar  
    14     8    38 1   
    15     9    10 ar  
    16     9    13 1   
    17    10    11 ar  
    18    10    39 1   
    19    11    12 ar  
    20    11    40 1   
    21    13    14 1   
    22    13    41 1   
    23    13    42 1   
    24    14    18 1   
    25    14    32 1   
    26    15    16 ar  
    27    15    20 ar  
    28    15    56 1   
    29    16    17 ar  
    30    16    43 1   
    31    17    18 ar  
    32    17    44 1   
    33    18    19 ar  
    34    19    20 ar  
    35    19    45 1   
    36    20    46 1   
    37    21    56 2   
    38    22    23 1   
    39    22    47 1   
    40    22    56 1   
    41    23    24 1   
    42    23    29 1   
    43    23    48 1   
    44    24    25 1   
    45    24    49 1   
    46    24    50 1   
    47    25    26 1   
    48    25    51 1   
    49    25    52 1   
    50    26    27 1   
    51    26    28 1   
    52    29    30 1   
    53    29    31 1   
    54    32    33 1   
    55    32    53 1   
    56    32    54 1   
    57    33    34 3   
    58    34    55 1   
@<TRIPOS>SUBSTRUCTURE
     1 CB3         1 TEMP              0 ****  ****    0 ROOT
