@<TRIPOS>MOLECULE
CB3
   56    58     1     0     0
SMALL
No Charge or Current Charge


@<TRIPOS>ATOM
      1 N1          48.5950    35.1920    23.5920 na         1 CB3      -0.934200
      2 C2          48.4600    35.2500    24.9200 cc         1 CB3       0.903100
      3 NA2         49.4210    34.7370    25.6130 nv         1 CB3      -1.070200
      4 N3          47.4380    35.7680    25.4980 nd         1 CB3      -0.794100
      5 C4          46.3940    36.3300    24.7790 c          1 CB3       0.734100
      6 O4          45.4400    36.8050    25.3760 o          1 CB3      -0.536100
      7 C4A         46.4980    36.3230    23.3090 ca         1 CB3      -0.215600
      8 C5          45.5110    36.8800    22.4730 ca         1 CB3       0.009000
      9 C6          45.6730    36.8440    21.0740 ca         1 CB3      -0.139300
     10 C7          46.8260    36.2460    20.5290 ca         1 CB3      -0.060000
     11 C8          47.8020    35.6950    21.3770 ca         1 CB3      -0.180000
     12 C8A         47.6320    35.7380    22.7680 ca         1 CB3       0.309000
     13 C9          44.6110    37.4540    20.1650 c3         1 CB3       0.294100
     14 N10         44.2630    38.8530    20.5100 nh         1 CB3      -0.841400
     15 C11         47.2880    41.7510    21.3090 ca         1 CB3      -0.145600
     16 C12         46.0760    41.7480    22.0400 ca         1 CB3      -0.040000
     17 C13         45.0820    40.7910    21.7700 ca         1 CB3      -0.194500
     18 C14         45.2640    39.8180    20.7720 ca         1 CB3       0.303000
     19 C15         46.4670    39.8210    20.0440 ca         1 CB3      -0.194500
     20 C16         47.4660    40.7730    20.3060 ca         1 CB3      -0.040000
     21 O           49.4310    42.7600    20.9210 o          1 CB3      -0.653100
     22 N           48.1590    43.6880    22.5640 ns         1 CB3      -0.433900
     23 CA          49.0740    44.7880    22.9580 c3         1 CB3      -0.048300
     24 CB          48.6920    46.1380    22.2930 c3         1 CB3      -0.048400
     25 CG          48.7670    46.1440    20.7440 c3         1 CB3      -0.201400
     26 CD          48.4820    47.5580    20.2050 c          1 CB3       0.713000
     27 OE1         49.4210    48.3290    20.0800 o          1 CB3      -0.765500
     28 OE2         47.3230    47.8670    19.9730 o          1 CB3      -0.765500
     29 CT          49.1130    44.9210    24.5110 c          1 CB3       0.715000
     30 O1          50.2030    44.9240    25.0650 o          1 CB3      -0.746000
     31 O2          48.0530    44.9180    25.1240 o          1 CB3      -0.746000
     32 CP1         42.8260    39.2060    20.5440 c3         1 CB3       0.324900
     33 CP2         42.1590    38.7350    21.7700 c1         1 CB3      -0.187100
     34 CP3         41.6380    38.3380    22.7880 c1         1 CB3      -0.218000
     35 HN1         49.3890    34.7050    23.2100 hn         1 CB3       0.490000
     36 HN21        49.3270    34.9680    26.5910 hn         1 CB3       0.501000
     37 HN22        50.3420    34.9030    25.2360 hn         1 CB3       0.501000
     38 H5          44.6250    37.3460    22.9030 ha         1 CB3       0.166000
     39 H7          46.9680    36.2110    19.4510 ha         1 CB3       0.106000
     40 H8          48.6890    35.2360    20.9500 ha         1 CB3       0.104000
     41 H91         44.9510    37.4110    19.1220 h1         1 CB3       0.045700
     42 H92         43.7160    36.8180    20.2260 h1         1 CB3       0.045700
     43 H12         45.8850    42.4770    22.8240 ha         1 CB3       0.135500
     44 H13         44.1680    40.8050    22.3570 ha         1 CB3       0.099000
     45 H15         46.6330    39.0880    19.2600 ha         1 CB3       0.099000
     46 H16         48.3840    40.7470    19.7230 ha         1 CB3       0.135500
     47 HN          47.2900    43.6020    23.0740 hn         1 CB3       0.320500
     48 HA          50.0910    44.5250    22.6400 h1         1 CB3       0.055700
     49 HB1         47.6800    46.4220    22.6070 hc         1 CB3       0.045200
     50 HB2         49.3660    46.9130    22.6790 hc         1 CB3       0.045200
     51 HG1         49.7890    45.8380    20.4910 hc         1 CB3       0.018200
     52 HG2         47.9970    45.4450    20.3970 hc         1 CB3       0.018200
     53 HP11        42.6980    40.2950    20.4690 h1         1 CB3       0.055700
     54 HP12        42.3120    38.7720    19.6750 h1         1 CB3       0.055700
     55 HP3         41.1880    37.9870    23.6960 ha         1 CB3       0.254000
     56 C           48.3880    42.7630    21.5630 c          1 CB3       0.597700
@<TRIPOS>BOND
     1     1     2 1   
     2     1    12 1   
     3     1    35 1   
     4     2     3 1   
     5     2     4 2   
     6     3    36 1   
     7     3    37 1   
     8     4     5 1   
     9     5     6 2   
    10     5     7 1   
    11     7     8 ar  
    12     7    12 ar  
    13     8     9 ar  
    14     8    38 1   
    15     9    10 ar  
    16     9    13 1   
    17    10    11 ar  
    18    10    39 1   
    19    11    12 ar  
    20    11    40 1   
    21    13    14 1   
    22    13    41 1   
    23    13    42 1   
    24    14    18 1   
    25    14    32 1   
    26    15    16 ar  
    27    15    20 ar  
    28    15    56 1   
    29    16    17 ar  
    30    16    43 1   
    31    17    18 ar  
    32    17    44 1   
    33    18    19 ar  
    34    19    20 ar  
    35    19    45 1   
    36    20    46 1   
    37    21    56 2   
    38    22    23 1   
    39    22    47 1   
    40    22    56 1   
    41    23    24 1   
    42    23    29 1   
    43    23    48 1   
    44    24    25 1   
    45    24    49 1   
    46    24    50 1   
    47    25    26 1   
    48    25    51 1   
    49    25    52 1   
    50    26    27 1   
    51    26    28 1   
    52    29    30 1   
    53    29    31 1   
    54    32    33 1   
    55    32    53 1   
    56    32    54 1   
    57    33    34 3   
    58    34    55 1   
@<TRIPOS>SUBSTRUCTURE
     1 CB3         1 TEMP              0 ****  ****    0 ROOT
