@<TRIPOS>MOLECULE
CB6
   41    43     1     0     0
SMALL
No Charge or Current Charge


@<TRIPOS>ATOM
      1 CAK         -2.5270    -0.5720    -0.7050 cc         1 CB6      -0.185200
      2 CAT         -3.9230    -0.3180    -0.4420 ca         1 CB6      -0.064800
      3 CAI         -4.9470    -0.2420    -1.3990 ca         1 CB6      -0.074000
      4 CAH         -6.2680     0.0170    -0.9720 ca         1 CB6      -0.089300
      5 CAR         -6.5360     0.1900     0.4050 ca         1 CB6      -0.112000
      6 CAJ         -5.4960     0.1110     1.3520 ca         1 CB6      -0.077000
      7 CAU         -4.1920    -0.1450     0.9010 ca         1 CB6      -0.177000
      8 SAO         -2.7510    -0.2820     1.9310 ss         1 CB6       0.094400
      9 CAS         -1.7770    -0.5830     0.4610 cd         1 CB6      -0.030600
     10 CAL         -0.2940    -0.8210     0.5800 c3         1 CB6       0.221800
     11 OAN          0.4000     0.2540    -0.0860 os         1 CB6      -0.374100
     12 CAQ          1.7790     0.2950    -0.1350 c2         1 CB6      -0.005100
     13 CAG          2.5850    -0.6400     0.4140 c2         1 CB6      -0.214200
     14 CAX          4.1200    -0.5950     0.3890 c6         1 CB6       0.066200
     15 CAP          4.7670    -1.9940    -0.0160 c          1 CB6       0.701000
     16 OAC          4.1250    -2.7250    -0.7600 o          1 CB6      -0.706000
     17 OAB          5.5740    -2.4540     0.7860 o          1 CB6      -0.706000
     18 OAF          4.5330    -0.2560     1.7320 oh         1 CB6      -0.703000
     19 CAM          4.6510     0.5080    -0.5750 c6         1 CB6      -0.069400
     20 CAV          3.8130     1.8020    -0.4730 c6         1 CB6       0.174300
     21 OAD          4.3720     2.8360    -1.3020 oh         1 CB6      -0.670000
     22 CAW          2.3430     1.5010    -0.8880 c6         1 CB6       0.197500
     23 OAE          1.5000     2.6410    -0.6680 oh         1 CB6      -0.676000
     24 CAA         -7.3970     0.1000    -1.9880 c3         1 CB6      -0.041800
     25 HAK         -2.0980    -0.7340    -1.6910 ha         1 CB6       0.206000
     26 HAI         -4.7220    -0.3820    -2.4530 ha         1 CB6       0.111000
     27 HAR         -7.5520     0.3860     0.7420 ha         1 CB6       0.103000
     28 HAA1        -7.8600    -0.8820    -2.1390 hc         1 CB6       0.037033
     29 HAA2        -8.1810     0.7930    -1.6580 hc         1 CB6       0.037033
     30 HAA3        -7.0350     0.4530    -2.9610 hc         1 CB6       0.037033
     31 HAJ         -5.7010     0.2440     2.4120 ha         1 CB6       0.116000
     32 HAL1        -0.0170    -0.8630     1.6410 h1         1 CB6       0.054200
     33 HAL2        -0.0510    -1.7860     0.1180 h1         1 CB6       0.054200
     34 HAG          2.1800    -1.5030     0.9390 ha         1 CB6       0.176000
     35 HAW          2.3380     1.2450    -1.9590 h1         1 CB6       0.045700
     36 HAF          5.1540    -0.9910     1.9680 ho         1 CB6       0.478000
     37 HAM1         5.7070     0.7200    -0.3620 hc         1 CB6       0.061700
     38 HAM2         4.6160     0.1390    -1.6100 hc         1 CB6       0.061700
     39 HAV          3.8130     2.1310     0.5770 h1         1 CB6       0.056700
     40 HAD          3.6610     3.5120    -1.3780 ho         1 CB6       0.436000
     41 HAE          0.6330     2.2410    -0.4300 ho         1 CB6       0.446000
@<TRIPOS>BOND
     1     1     2 1   
     2     1     9 2   
     3     1    25 1   
     4     2     3 ar  
     5     2     7 ar  
     6     3     4 ar  
     7     3    26 1   
     8     4     5 ar  
     9     4    24 1   
    10     5     6 ar  
    11     5    27 1   
    12     6     7 ar  
    13     6    31 1   
    14     7     8 1   
    15     8     9 1   
    16     9    10 1   
    17    10    11 1   
    18    10    32 1   
    19    10    33 1   
    20    11    12 1   
    21    12    13 2   
    22    12    22 1   
    23    13    14 1   
    24    13    34 1   
    25    14    15 1   
    26    14    18 1   
    27    14    19 1   
    28    15    16 1   
    29    15    17 1   
    30    18    36 1   
    31    19    20 1   
    32    19    37 1   
    33    19    38 1   
    34    20    21 1   
    35    20    22 1   
    36    20    39 1   
    37    21    40 1   
    38    22    23 1   
    39    22    35 1   
    40    23    41 1   
    41    24    28 1   
    42    24    29 1   
    43    24    30 1   
@<TRIPOS>SUBSTRUCTURE
     1 CB6         1 TEMP              0 ****  ****    0 ROOT
