@<TRIPOS>MOLECULE
CB6
   41    43     1     0     0
SMALL
bcc


@<TRIPOS>ATOM
      1 CAK         -2.6770    -1.1100    -0.7710 cc         1 CB6      -0.135200
      2 CAT         -3.9800    -0.5370    -0.5950 ca         1 CB6      -0.064800
      3 CAI         -5.2070    -0.9650    -1.1150 ca         1 CB6      -0.092000
      4 CAH         -6.3670    -0.2660    -0.8350 ca         1 CB6      -0.089300
      5 CAR         -6.2920     0.8840    -0.0270 ca         1 CB6      -0.130000
      6 CAJ         -5.0960     1.3320     0.4960 ca         1 CB6      -0.095000
      7 CAU         -3.9390     0.6110     0.2110 ca         1 CB6      -0.050100
      8 SAO         -2.3210     0.9600     0.7320 ss         1 CB6      -0.032500
      9 CAS         -1.7080    -0.4250    -0.1230 cd         1 CB6      -0.030600
     10 CAL         -0.2630    -0.7630    -0.0330 c3         1 CB6       0.198600
     11 OAN          0.4740     0.4210    -0.2500 os         1 CB6      -0.350900
     12 CAQ          1.8200     0.3660    -0.1170 c2         1 CB6      -0.005100
     13 CAG          2.5380    -0.7390     0.0850 c2         1 CB6      -0.164200
     14 CAX          4.0340    -0.7220     0.2300 c6         1 CB6       0.043000
     15 CAP          4.6550    -1.9090    -0.5640 c          1 CB6       0.911600
     16 OAC          4.3840    -2.0020    -1.7680 o          1 CB6      -0.811300
     17 OAB          5.3910    -2.6610     0.1160 o          1 CB6      -0.811300
     18 OAF          4.3710    -0.8900     1.5920 oh         1 CB6      -0.640800
     19 CAM          4.6070     0.5920    -0.3100 c6         1 CB6      -0.069400
     20 CAV          3.8450     1.7760     0.2480 c6         1 CB6       0.151100
     21 OAD          4.5040     2.9650    -0.1270 oh         1 CB6      -0.607800
     22 CAW          2.4180     1.7450    -0.2800 c6         1 CB6       0.174300
     23 OAE          1.6830     2.7230     0.4200 oh         1 CB6      -0.613800
     24 CAA         -7.6970    -0.7230    -1.3620 c3         1 CB6      -0.041800
     25 HAK         -2.4860    -1.9970    -1.3590 ha         1 CB6       0.156000
     26 HAI         -5.2400    -1.8480    -1.7420 ha         1 CB6       0.129000
     27 HAR         -7.1990     1.4350     0.1910 ha         1 CB6       0.121000
     28 HAA1        -8.3060    -1.1530    -0.5650 hc         1 CB6       0.037033
     29 HAA2        -8.2640     0.1060    -1.7870 hc         1 CB6       0.037033
     30 HAA3        -7.5810    -1.4820    -2.1340 hc         1 CB6       0.037033
     31 HAJ         -5.0630     2.2210     1.1120 ha         1 CB6       0.134000
     32 HAL1        -0.0240    -1.1770     0.9540 h1         1 CB6       0.054200
     33 HAL2        -0.0230    -1.5300    -0.7770 h1         1 CB6       0.054200
     34 HAG          2.0540    -1.7040     0.1910 ha         1 CB6       0.126000
     35 HAW          2.4480     1.9810    -1.3550 h1         1 CB6       0.045700
     36 HAF          4.9670    -1.6650     1.5550 ho         1 CB6       0.439000
     37 HAM1         5.6650     0.6640    -0.0430 hc         1 CB6       0.061700
     38 HAM2         4.5440     0.6000    -1.4010 hc         1 CB6       0.061700
     39 HAV          3.8030     1.6890     1.3440 h1         1 CB6       0.056700
     40 HAD          4.0370     3.7050     0.2730 ho         1 CB6       0.397000
     41 HAE          0.8320     2.8440    -0.0120 ho         1 CB6       0.407000
@<TRIPOS>BOND
     1     1     2 1   
     2     1     9 2   
     3     1    25 1   
     4     2     3 ar  
     5     2     7 ar  
     6     3     4 ar  
     7     3    26 1   
     8     4     5 ar  
     9     4    24 1   
    10     5     6 ar  
    11     5    27 1   
    12     6     7 ar  
    13     6    31 1   
    14     7     8 1   
    15     8     9 1   
    16     9    10 1   
    17    10    11 1   
    18    10    32 1   
    19    10    33 1   
    20    11    12 1   
    21    12    13 2   
    22    12    22 1   
    23    13    14 1   
    24    13    34 1   
    25    14    15 1   
    26    14    18 1   
    27    14    19 1   
    28    15    16 1   
    29    15    17 1   
    30    18    36 1   
    31    19    20 1   
    32    19    37 1   
    33    19    38 1   
    34    20    21 1   
    35    20    22 1   
    36    20    39 1   
    37    21    40 1   
    38    22    23 1   
    39    22    35 1   
    40    23    41 1   
    41    24    28 1   
    42    24    29 1   
    43    24    30 1   
@<TRIPOS>SUBSTRUCTURE
     1 CB6         1 TEMP              0 ****  ****    0 ROOT
