@<TRIPOS>MOLECULE
CB7
   54    58     1     0     0
SMALL
No Charge or Current Charge


@<TRIPOS>ATOM
      1 CAO         -1.0670    -1.9350    -0.0920 ca         1 CB7      -0.068000
      2 CBB         -1.4060    -3.2320    -0.5080 ca         1 CB7      -0.085800
      3 CAK         -0.7520    -3.9930    -1.5450 cc         1 CB7      -0.158200
      4 CAG         -1.3320    -5.2400    -1.7080 cd         1 CB7      -0.174400
      5 SAU         -2.7040    -5.5350    -0.5980 ss         1 CB7      -0.005600
      6 CBD         -2.4510    -3.9150     0.0810 ca         1 CB7      -0.148000
      7 CAM         -3.2070    -3.3360     1.1110 ca         1 CB7      -0.096000
      8 CAI         -2.8800    -2.0350     1.5420 ca         1 CB7      -0.069000
      9 CAZ         -1.8110    -1.3270     0.9430 ca         1 CB7      -0.049300
     10 CAQ         -1.4470     0.0760     1.4130 c3         1 CB7       0.006100
     11 CAW         -1.7180     1.1640     0.3610 c2         1 CB7      -0.015400
     12 CBG         -3.2110     1.5560     0.1590 c6         1 CB7       0.057200
     13 CAV         -3.9750     1.7960     1.5300 c          1 CB7       0.698000
     14 OAB         -3.4180     2.4680     2.3880 o          1 CB7      -0.704000
     15 OAA         -4.8450     0.9780     1.8090 o          1 CB7      -0.704000
     16 OAE         -3.8700     0.4820    -0.5610 oh         1 CB7      -0.688000
     17 CAR         -3.3700     2.8470    -0.6960 c6         1 CB7      -0.067400
     18 CBE         -2.4380     2.8190    -1.9180 c6         1 CB7       0.174300
     19 OAC         -2.6720     3.9540    -2.7680 oh         1 CB7      -0.671000
     20 CBF         -0.9590     2.7920    -1.4430 c6         1 CB7       0.174500
     21 OAD         -0.1020     2.5390    -2.5660 oh         1 CB7      -0.673000
     22 CAX         -0.7160     1.7320    -0.3570 c2         1 CB7      -0.039100
     23 OAS          0.5950     1.3620    -0.1370 os         1 CB7      -0.376100
     24 CAP          1.6070     2.3720     0.0590 c3         1 CB7       0.195900
     25 CAY          2.9140     1.6770     0.4100 ca         1 CB7      -0.076300
     26 CAN          3.9790     1.6450    -0.5190 ca         1 CB7      -0.066000
     27 CBA          5.1730     0.9970    -0.1660 ca         1 CB7      -0.082800
     28 CAJ          6.3510     0.8740    -0.9900 cc         1 CB7      -0.165200
     29 CAF          7.3570     0.1730    -0.3440 cd         1 CB7      -0.166400
     30 SAT          6.9040    -0.3640     1.3010 ss         1 CB7       0.028400
     31 CBC          5.3160     0.3950     1.0680 ca         1 CB7      -0.153000
     32 CAL          4.2750     0.4100     2.0080 ca         1 CB7      -0.092000
     33 CAH          3.0690     1.0560     1.6720 ca         1 CB7      -0.069000
     34 HAO         -0.2410    -1.4050    -0.5610 ha         1 CB7       0.124000
     35 HAK          0.0930    -3.6430    -2.1350 ha         1 CB7       0.196000
     36 HAG         -1.0430    -6.0130    -2.4130 h4         1 CB7       0.201000
     37 HAM         -4.0290    -3.8810     1.5690 ha         1 CB7       0.114000
     38 HAI         -3.4590    -1.5760     2.3410 ha         1 CB7       0.143000
     39 HAQ1        -1.9580     0.3030     2.3540 hc         1 CB7       0.059200
     40 HAQ2        -0.3890     0.0690     1.6950 hc         1 CB7       0.059200
     41 HAE         -4.5020     0.1170     0.1060 ho         1 CB7       0.477000
     42 HAR1        -4.4150     2.9610    -1.0170 hc         1 CB7       0.063700
     43 HAR2        -3.1370     3.7310    -0.0870 hc         1 CB7       0.063700
     44 HBE         -2.6360     1.8930    -2.4790 h1         1 CB7       0.062700
     45 HAC         -1.8920     3.9860    -3.3660 ho         1 CB7       0.438000
     46 HBF         -0.7190     3.7740    -1.0080 h1         1 CB7       0.032700
     47 HAD          0.5170     1.8460    -2.2470 ho         1 CB7       0.443000
     48 HAP1         1.7470     2.9870    -0.8380 h1         1 CB7       0.039700
     49 HAP2         1.3240     3.0400     0.8830 h1         1 CB7       0.039700
     50 HAN          3.8790     2.1150    -1.4950 ha         1 CB7       0.115000
     51 HAH          2.2510     1.0740     2.3890 ha         1 CB7       0.129000
     52 HAJ          6.4520     1.2750    -1.9970 ha         1 CB7       0.200000
     53 HAF          8.3440    -0.0660    -0.7270 h4         1 CB7       0.209000
     54 HAL          4.3950    -0.0680     2.9770 ha         1 CB7       0.119000
@<TRIPOS>BOND
     1     1     2 ar  
     2     1     9 ar  
     3     1    34 1   
     4     2     3 1   
     5     2     6 ar  
     6     3     4 2   
     7     3    35 1   
     8     4     5 1   
     9     4    36 1   
    10     5     6 1   
    11     6     7 ar  
    12     7     8 ar  
    13     7    37 1   
    14     8     9 ar  
    15     8    38 1   
    16     9    10 1   
    17    10    11 1   
    18    10    39 1   
    19    10    40 1   
    20    11    12 1   
    21    11    22 2   
    22    12    13 1   
    23    12    16 1   
    24    12    17 1   
    25    13    14 1   
    26    13    15 1   
    27    16    41 1   
    28    17    18 1   
    29    17    42 1   
    30    17    43 1   
    31    18    19 1   
    32    18    20 1   
    33    18    44 1   
    34    19    45 1   
    35    20    21 1   
    36    20    22 1   
    37    20    46 1   
    38    21    47 1   
    39    22    23 1   
    40    23    24 1   
    41    24    25 1   
    42    24    48 1   
    43    24    49 1   
    44    25    26 ar  
    45    25    33 ar  
    46    26    27 ar  
    47    26    50 1   
    48    27    28 1   
    49    27    31 ar  
    50    28    29 2   
    51    28    52 1   
    52    29    30 1   
    53    29    53 1   
    54    30    31 1   
    55    31    32 ar  
    56    32    33 ar  
    57    32    54 1   
    58    33    51 1   
@<TRIPOS>SUBSTRUCTURE
     1 CB7         1 TEMP              0 ****  ****    0 ROOT
