@<TRIPOS>MOLECULE
CB7
   54    58     1     0     0
SMALL
abcg2


@<TRIPOS>ATOM
      1 CAO         -1.0410    -1.9930     0.1220 ca         1 CB7      -0.068000
      2 CBB         -1.4180    -3.2890    -0.2470 ca         1 CB7      -0.085800
      3 CAK         -0.7390    -4.2200    -1.1030 cc         1 CB7      -0.158200
      4 CAG         -1.4030    -5.3890    -1.2320 cd         1 CB7      -0.174400
      5 SAU         -2.8800    -5.4340    -0.3290 ss         1 CB7      -0.005600
      6 CBD         -2.6160    -3.8220     0.2560 ca         1 CB7      -0.148000
      7 CAM         -3.4300    -3.0850     1.1120 ca         1 CB7      -0.096000
      8 CAI         -3.0330    -1.8080     1.4560 ca         1 CB7      -0.069000
      9 CAZ         -1.8410    -1.2490     0.9690 ca         1 CB7      -0.049300
     10 CAQ         -1.4250     0.1450     1.3780 c3         1 CB7       0.006100
     11 CAW         -1.6730     1.1800     0.3090 c2         1 CB7      -0.015400
     12 CBG         -3.0940     1.6720     0.1180 c6         1 CB7       0.057200
     13 CAV         -3.7360     2.0100     1.4960 c          1 CB7       0.698000
     14 OAB         -3.1780     2.8600     2.2010 o          1 CB7      -0.704000
     15 OAA         -4.7850     1.3730     1.7500 o          1 CB7      -0.704000
     16 OAE         -3.8550     0.6480    -0.4800 oh         1 CB7      -0.688000
     17 CAR         -3.1280     2.9340    -0.7480 c6         1 CB7      -0.067400
     18 CBE         -2.3190     2.7410    -2.0100 c6         1 CB7       0.174300
     19 OAC         -2.5240     3.8460    -2.8630 oh         1 CB7      -0.671000
     20 CBF         -0.8580     2.5900    -1.6250 c6         1 CB7       0.174500
     21 OAD         -0.1550     2.1760    -2.7780 oh         1 CB7      -0.673000
     22 CAX         -0.6960     1.5980    -0.4960 c2         1 CB7      -0.039100
     23 OAS          0.5910     1.1290    -0.3690 os         1 CB7      -0.376100
     24 CAP          1.4440     1.9580     0.4190 c3         1 CB7       0.195900
     25 CAY          2.8010     1.3250     0.4540 ca         1 CB7      -0.076300
     26 CAN          3.8880     1.9640    -0.1070 ca         1 CB7      -0.066000
     27 CBA          5.1530     1.3620    -0.0680 ca         1 CB7      -0.082800
     28 CAJ          6.4030     1.8460    -0.5780 cc         1 CB7      -0.165200
     29 CAF          7.4200     0.9850    -0.3560 cd         1 CB7      -0.166400
     30 SAT          6.9270    -0.4510     0.4740 ss         1 CB7       0.028400
     31 CBC          5.2870     0.1030     0.5400 ca         1 CB7      -0.153000
     32 CAL          4.1950    -0.5530     1.1050 ca         1 CB7      -0.092000
     33 CAH          2.9640     0.0650     1.0570 ca         1 CB7      -0.069000
     34 HAO         -0.1170    -1.5760    -0.2610 ha         1 CB7       0.124000
     35 HAK          0.2020    -4.0090    -1.5930 ha         1 CB7       0.196000
     36 HAG         -1.1120    -6.2490    -1.8160 h4         1 CB7       0.201000
     37 HAM         -4.3530    -3.4980     1.4990 ha         1 CB7       0.114000
     38 HAI         -3.6620    -1.2160     2.1070 ha         1 CB7       0.143000
     39 HAQ1        -1.9520     0.4240     2.2910 hc         1 CB7       0.059200
     40 HAQ2        -0.3680     0.1270     1.6470 hc         1 CB7       0.059200
     41 HAE         -4.5540     0.4980     0.1860 ho         1 CB7       0.477000
     42 HAR1        -4.1680     3.1690    -0.9940 hc         1 CB7       0.063700
     43 HAR2        -2.7270     3.7800    -0.1840 hc         1 CB7       0.063700
     44 HBE         -2.6370     1.8100    -2.5010 h1         1 CB7       0.062700
     45 HAC         -2.0210     3.6990    -3.6700 ho         1 CB7       0.438000
     46 HBF         -0.4960     3.5780    -1.2930 h1         1 CB7       0.032700
     47 HAD          0.7820     2.1160    -2.5690 ho         1 CB7       0.443000
     48 HAP1         1.5110     2.9690     0.0010 h1         1 CB7       0.039700
     49 HAP2         1.0350     2.0530     1.4310 h1         1 CB7       0.039700
     50 HAN          3.7690     2.9320    -0.5800 ha         1 CB7       0.115000
     51 HAH          2.1080    -0.4300     1.5000 ha         1 CB7       0.129000
     52 HAJ          6.5210     2.7940    -1.0830 ha         1 CB7       0.200000
     53 HAF          8.4550     1.1060    -0.6360 h4         1 CB7       0.209000
     54 HAL          4.3080    -1.5220     1.5750 ha         1 CB7       0.119000
@<TRIPOS>BOND
     1     1     2 ar  
     2     1     9 ar  
     3     1    34 1   
     4     2     3 1   
     5     2     6 ar  
     6     3     4 2   
     7     3    35 1   
     8     4     5 1   
     9     4    36 1   
    10     5     6 1   
    11     6     7 ar  
    12     7     8 ar  
    13     7    37 1   
    14     8     9 ar  
    15     8    38 1   
    16     9    10 1   
    17    10    11 1   
    18    10    39 1   
    19    10    40 1   
    20    11    12 1   
    21    11    22 2   
    22    12    13 1   
    23    12    16 1   
    24    12    17 1   
    25    13    14 1   
    26    13    15 1   
    27    16    41 1   
    28    17    18 1   
    29    17    42 1   
    30    17    43 1   
    31    18    19 1   
    32    18    20 1   
    33    18    44 1   
    34    19    45 1   
    35    20    21 1   
    36    20    22 1   
    37    20    46 1   
    38    21    47 1   
    39    22    23 1   
    40    23    24 1   
    41    24    25 1   
    42    24    48 1   
    43    24    49 1   
    44    25    26 ar  
    45    25    33 ar  
    46    26    27 ar  
    47    26    50 1   
    48    27    28 1   
    49    27    31 ar  
    50    28    29 2   
    51    28    52 1   
    52    29    30 1   
    53    29    53 1   
    54    30    31 1   
    55    31    32 ar  
    56    32    33 ar  
    57    32    54 1   
    58    33    51 1   
@<TRIPOS>SUBSTRUCTURE
     1 CB7         1 TEMP              0 ****  ****    0 ROOT
