@<TRIPOS>MOLECULE
CB8
   48    51     1     0     0
SMALL
abcg2


@<TRIPOS>ATOM
      1 CAV          1.0730    -1.1510    -0.2500 c2         1 CB8      -0.001100
      2 CBB          1.5580    -2.4790    -0.7870 c6         1 CB8       0.163500
      3 OAD          0.9740    -2.7220    -2.0540 oh         1 CB8      -0.661000
      4 CBA          3.0750    -2.4620    -0.9240 c6         1 CB8       0.153300
      5 OAC          3.5750    -3.7400    -1.2450 oh         1 CB8      -0.670000
      6 CAP          3.6740    -2.0020     0.3850 c6         1 CB8      -0.066400
      7 CBC          3.3080    -0.5420     0.6620 c6         1 CB8       0.057200
      8 CAT          3.6190    -0.2320     2.1590 c          1 CB8       0.700000
      9 OAB          4.5330     0.6080     2.3330 o          1 CB8      -0.700000
     10 OAA          2.9640    -0.8270     3.0220 o          1 CB8      -0.700000
     11 OAE          4.0820     0.3340    -0.1280 oh         1 CB8      -0.699000
     12 CAU          1.8510    -0.2740     0.3850 c2         1 CB8      -0.039400
     13 CAM         -3.6510    -1.5030    -0.6510 cc         1 CB8      -0.189200
     14 CAY         -4.7740    -0.6560    -0.3690 ca         1 CB8      -0.067800
     15 CAK         -6.0890    -0.7490    -0.8400 ca         1 CB8      -0.077000
     16 CAF         -7.0180     0.1910    -0.4410 ca         1 CB8      -0.124000
     17 CAG         -6.6590     1.2310     0.4270 ca         1 CB8      -0.115000
     18 CAL         -5.3670     1.3440     0.9040 ca         1 CB8      -0.077000
     19 CAZ         -4.4320     0.3930     0.5020 ca         1 CB8      -0.175000
     20 SAS         -2.7600     0.3140     0.9520 ss         1 CB8       0.112400
     21 CAX         -2.5220    -1.1120    -0.0190 cd         1 CB8      -0.027600
     22 CAN         -1.1910    -1.7740    -0.0500 c3         1 CB8       0.219800
     23 OAQ         -0.2310    -0.8280    -0.4910 os         1 CB8      -0.338100
     24 CAO          1.3230     1.0870     0.7660 c3         1 CB8       0.039100
     25 CAW          1.1030     1.9940    -0.4060 cc         1 CB8      -0.163300
     26 CAJ         -0.0520     2.6260    -0.7590 cd         1 CB8      -0.160000
     27 CAH          0.0830     3.4540    -1.9090 cd         1 CB8      -0.138000
     28 CAI          1.3460     3.4320    -2.4140 cc         1 CB8      -0.292000
     29 SAR          2.3750     2.4020    -1.5020 ss         1 CB8       0.260000
     30 HBB          1.2920    -3.2830    -0.0850 h1         1 CB8       0.038700
     31 HAD          0.5090    -3.5620    -2.0310 ho         1 CB8       0.426000
     32 HBA          3.3320    -1.7380    -1.7110 h1         1 CB8       0.061700
     33 HAC          3.2130    -3.9910    -2.1010 ho         1 CB8       0.431000
     34 HAP1         3.2990    -2.6330     1.1960 hc         1 CB8       0.063700
     35 HAP2         4.7630    -2.1020     0.3690 hc         1 CB8       0.063700
     36 HAE          4.6100     0.8010     0.5510 ho         1 CB8       0.480000
     37 HAO1         0.3710     1.0020     1.2930 hc         1 CB8       0.067200
     38 HAO2         2.0070     1.5740     1.4650 hc         1 CB8       0.067200
     39 HAF         -8.0360     0.1270    -0.8010 ha         1 CB8       0.103000
     40 HAG         -7.4030     1.9560     0.7300 ha         1 CB8       0.104000
     41 HAL         -5.0930     2.1500     1.5720 ha         1 CB8       0.118000
     42 HAN1        -0.9310    -2.1420     0.9500 h1         1 CB8       0.038200
     43 HAN2        -1.2520    -2.6390    -0.7170 h1         1 CB8       0.038200
     44 HAJ         -0.9770     2.4910    -0.2160 ha         1 CB8       0.125000
     45 HAH         -0.7240     4.0320    -2.3370 ha         1 CB8       0.112000
     46 HAI          1.7240     3.9550    -3.2790 h4         1 CB8       0.129000
     47 HAM         -3.6960    -2.3640    -1.3040 ha         1 CB8       0.199000
     48 HAK         -6.3670    -1.5520    -1.5110 ha         1 CB8       0.109000
@<TRIPOS>BOND
     1     1     2 1   
     2     1    12 2   
     3     1    23 1   
     4     2     3 1   
     5     2     4 1   
     6     2    30 1   
     7     3    31 1   
     8     4     5 1   
     9     4     6 1   
    10     4    32 1   
    11     5    33 1   
    12     6     7 1   
    13     6    34 1   
    14     6    35 1   
    15     7     8 1   
    16     7    11 1   
    17     7    12 1   
    18     8     9 1   
    19     8    10 1   
    20    11    36 1   
    21    12    24 1   
    22    13    14 1   
    23    13    21 2   
    24    13    47 1   
    25    14    15 ar  
    26    14    19 ar  
    27    15    16 ar  
    28    15    48 1   
    29    16    17 ar  
    30    16    39 1   
    31    17    18 ar  
    32    17    40 1   
    33    18    19 ar  
    34    18    41 1   
    35    19    20 1   
    36    20    21 1   
    37    21    22 1   
    38    22    23 1   
    39    22    42 1   
    40    22    43 1   
    41    24    25 1   
    42    24    37 1   
    43    24    38 1   
    44    25    26 2   
    45    25    29 1   
    46    26    27 1   
    47    26    44 1   
    48    27    28 2   
    49    27    45 1   
    50    28    29 1   
    51    28    46 1   
@<TRIPOS>SUBSTRUCTURE
     1 CB8         1 TEMP              0 ****  ****    0 ROOT
