@<TRIPOS>MOLECULE
CB8
   48    51     1     0     0
SMALL
No Charge or Current Charge


@<TRIPOS>ATOM
      1 CAV          1.2520    -1.1580    -0.1660 c2         1 CB8      -0.001100
      2 CBB          1.6350    -2.5860    -0.5920 c6         1 CB8       0.163500
      3 OAD          0.9490    -2.9460    -1.8020 oh         1 CB8      -0.661000
      4 CBA          3.1650    -2.7420    -0.8100 c6         1 CB8       0.153300
      5 OAC          3.5060    -4.1250    -0.9970 oh         1 CB8      -0.670000
      6 CAP          3.9170    -2.1500     0.3920 c6         1 CB8      -0.066400
      7 CBC          3.6480    -0.6230     0.5250 c6         1 CB8       0.057200
      8 CAT          4.2000    -0.1680     1.9450 c          1 CB8       0.700000
      9 OAB          5.1050     0.6600     1.9190 o          1 CB8      -0.700000
     10 OAA          3.4650    -0.2890     2.9160 o          1 CB8      -0.700000
     11 OAE          4.4080     0.0480    -0.5150 oh         1 CB8      -0.699000
     12 CAU          2.1510    -0.2640     0.3230 c2         1 CB8      -0.039400
     13 CAM         -3.3840    -1.2650    -0.9050 cc         1 CB8      -0.189200
     14 CAY         -4.5370    -0.4110    -0.7530 ca         1 CB8      -0.067800
     15 CAK         -5.6740    -0.3990    -1.5760 ca         1 CB8      -0.077000
     16 CAF         -6.7140     0.5070    -1.2850 ca         1 CB8      -0.124000
     17 CAG         -6.6040     1.3840    -0.1850 ca         1 CB8      -0.115000
     18 CAL         -5.4550     1.3590     0.6300 ca         1 CB8      -0.077000
     19 CAZ         -4.4320     0.4480     0.3240 ca         1 CB8      -0.175000
     20 SAS         -2.9100     0.2640     1.2230 ss         1 CB8       0.112400
     21 CAX         -2.4330    -1.0210     0.0740 cd         1 CB8      -0.027600
     22 CAN         -1.1000    -1.7030     0.2350 c3         1 CB8       0.219800
     23 OAQ         -0.0800    -0.8230    -0.2790 os         1 CB8      -0.338100
     24 CAO          1.8080     1.1920     0.6880 c3         1 CB8       0.039100
     25 CAW          0.7810     1.8740    -0.1850 cc         1 CB8      -0.163300
     26 CAJ         -0.3380     2.5640     0.2100 cd         1 CB8      -0.160000
     27 CAH         -1.0900     3.0980    -0.8690 cd         1 CB8      -0.138000
     28 CAI         -0.5450     2.8320    -2.0990 cc         1 CB8      -0.292000
     29 SAR          0.9430     1.8990    -1.9420 ss         1 CB8       0.260000
     30 HBB          1.3350    -3.2660     0.2190 h1         1 CB8       0.038700
     31 HAD          0.3220    -2.2090    -1.9680 ho         1 CB8       0.426000
     32 HBA          3.4450    -2.1690    -1.7070 h1         1 CB8       0.061700
     33 HAC          2.8150    -4.4760    -1.6020 ho         1 CB8       0.431000
     34 HAP1         3.5980    -2.6660     1.3070 hc         1 CB8       0.063700
     35 HAP2         4.9960    -2.3360     0.2940 hc         1 CB8       0.063700
     36 HAE          5.0430     0.6120    -0.0050 ho         1 CB8       0.480000
     37 HAO1         1.4760     1.2290     1.7320 hc         1 CB8       0.067200
     38 HAO2         2.7110     1.8130     0.6510 hc         1 CB8       0.067200
     39 HAF         -7.6030     0.5300    -1.9110 ha         1 CB8       0.103000
     40 HAG         -7.4090     2.0820     0.0350 ha         1 CB8       0.104000
     41 HAL         -5.3630     2.0330     1.4790 ha         1 CB8       0.118000
     42 HAN1        -0.9280    -1.9090     1.2990 h1         1 CB8       0.038200
     43 HAN2        -1.1210    -2.6600    -0.3000 h1         1 CB8       0.038200
     44 HAJ         -0.6250     2.6840     1.2500 ha         1 CB8       0.125000
     45 HAH         -2.0080     3.6630    -0.7340 ha         1 CB8       0.112000
     46 HAI         -0.9000     3.1110    -3.0820 h4         1 CB8       0.129000
     47 HAM         -3.2580    -2.0080    -1.6880 ha         1 CB8       0.199000
     48 HAK         -5.7520    -1.0770    -2.4230 ha         1 CB8       0.109000
@<TRIPOS>BOND
     1     1     2 1   
     2     1    12 2   
     3     1    23 1   
     4     2     3 1   
     5     2     4 1   
     6     2    30 1   
     7     3    31 1   
     8     4     5 1   
     9     4     6 1   
    10     4    32 1   
    11     5    33 1   
    12     6     7 1   
    13     6    34 1   
    14     6    35 1   
    15     7     8 1   
    16     7    11 1   
    17     7    12 1   
    18     8     9 1   
    19     8    10 1   
    20    11    36 1   
    21    12    24 1   
    22    13    14 1   
    23    13    21 2   
    24    13    47 1   
    25    14    15 ar  
    26    14    19 ar  
    27    15    16 ar  
    28    15    48 1   
    29    16    17 ar  
    30    16    39 1   
    31    17    18 ar  
    32    17    40 1   
    33    18    19 ar  
    34    18    41 1   
    35    19    20 1   
    36    20    21 1   
    37    21    22 1   
    38    22    23 1   
    39    22    42 1   
    40    22    43 1   
    41    24    25 1   
    42    24    37 1   
    43    24    38 1   
    44    25    26 2   
    45    25    29 1   
    46    26    27 1   
    47    26    44 1   
    48    27    28 2   
    49    27    45 1   
    50    28    29 1   
    51    28    46 1   
@<TRIPOS>SUBSTRUCTURE
     1 CB8         1 TEMP              0 ****  ****    0 ROOT
