@<TRIPOS>MOLECULE
CB9
   44    45     1     0     0
SMALL
No Charge or Current Charge


@<TRIPOS>ATOM
      1 C           -0.8610    -3.2710    -0.1130 c          1 CB9       0.569900
      2 N            0.6950    -1.3410    -0.3190 ns         1 CB9      -0.483900
      3 O           -0.2320    -3.8670    -0.9840 o          1 CB9      -0.529100
      4 CA          -0.5080    -1.8560     0.3930 c3         1 CB9      -0.000300
      5 CB          -1.7350    -0.9030     0.3500 c5         1 CB9       0.371500
      6 CAJ          6.3670     0.3100     1.2360 ca         1 CB9      -0.148000
      7 CAK          6.1700    -0.6300     0.2130 ca         1 CB9      -0.131500
      8 CAL          5.3350     1.1970     1.5780 ca         1 CB9      -0.131500
      9 CAM          4.9420    -0.6820    -0.4690 ca         1 CB9      -0.090000
     10 CAN          4.1060     1.1450     0.8970 ca         1 CB9      -0.090000
     11 NAP         -2.9240    -1.4220     1.0430 n7         1 CB9      -0.808400
     12 SAQ         -2.4500    -0.7740    -1.3400 ss         1 CB9      -0.626000
     13 CAR         -3.9740     0.8930     1.8280 c          1 CB9       0.733000
     14 CAS          2.2490     1.3610    -1.7200 c          1 CB9       0.735000
     15 CAT          1.3750    -0.1890     0.0040 c          1 CB9       0.657100
     16 CAU          3.8950     0.2040    -0.1350 ca         1 CB9       0.015700
     17 CAX         -4.0050    -0.3720     0.8650 c5         1 CB9       0.031500
     18 CAY          2.5640     0.1210    -0.8930 c3         1 CB9      -0.264400
     19 CAZ         -3.9720     0.0530    -0.6600 c5         1 CB9       0.124000
     20 H           -1.7340    -3.7550     0.3780 h4         1 CB9      -0.040800
     21 HN           1.0340    -1.8580    -1.1230 hn         1 CB9       0.324500
     22 HA          -0.2440    -1.9790     1.4510 h1         1 CB9       0.107700
     23 HB          -1.4360     0.0900     0.7220 h2         1 CB9       0.156700
     24 HAJ          7.3180     0.3500     1.7630 ha         1 CB9       0.077000
     25 HAK          6.9680    -1.3180    -0.0540 ha         1 CB9       0.083500
     26 HAL          5.4850     1.9260     2.3710 ha         1 CB9       0.083500
     27 HAM          4.8050    -1.4160    -1.2600 ha         1 CB9       0.120000
     28 HAN          3.3190     1.8410     1.1750 ha         1 CB9       0.120000
     29 HNAP        -3.2190    -2.2570     0.5320 hn         1 CB9       0.374000
     30 HAX         -4.9690    -0.8530     1.0830 h1         1 CB9       0.047700
     31 HAY          2.6350    -0.7050    -1.6110 hc         1 CB9       0.050700
     32 CAA         -5.1940    -0.5010    -1.4330 c3         1 CB9      -0.067100
     33 CAB         -3.8520     1.5740    -0.9510 c3         1 CB9      -0.067100
     34 OAF          1.0400     0.4950     0.9610 o          1 CB9      -0.644100
     35 OAG         -5.0400     1.3370     2.2380 o          1 CB9      -0.715500
     36 OAH          2.1500     1.2170    -2.9290 o          1 CB9      -0.706000
     37 HAA         -5.1190    -0.2920    -2.5070 hc         1 CB9       0.030200
     38 HAAA        -5.2800    -1.5880    -1.3140 hc         1 CB9       0.030200
     39 HAAB        -6.1270    -0.0530    -1.0710 hc         1 CB9       0.030200
     40 HAB         -4.7210     2.1260    -0.5730 hc         1 CB9       0.030200
     41 HABA        -2.9520     2.0040    -0.4960 hc         1 CB9       0.030200
     42 HABB        -3.7890     1.7660    -2.0290 hc         1 CB9       0.030200
     43 OAE          2.1560     2.4460    -1.1680 o          1 CB9      -0.706000
     44 OAD         -2.9060     1.3320     2.2380 o          1 CB9      -0.715500
@<TRIPOS>BOND
     1     1     3 2   
     2     1     4 1   
     3     1    20 1   
     4     2     4 1   
     5     2    15 1   
     6     2    21 1   
     7     4     5 1   
     8     4    22 1   
     9     5    11 1   
    10     5    12 1   
    11     5    23 1   
    12     6     7 ar  
    13     6     8 ar  
    14     6    24 1   
    15     7     9 ar  
    16     7    25 1   
    17     8    10 ar  
    18     8    26 1   
    19     9    16 ar  
    20     9    27 1   
    21    10    16 ar  
    22    10    28 1   
    23    11    17 1   
    24    11    29 1   
    25    12    19 1   
    26    13    17 1   
    27    13    35 1   
    28    13    44 1   
    29    14    18 1   
    30    14    36 1   
    31    14    43 1   
    32    15    18 1   
    33    15    34 2   
    34    16    18 1   
    35    17    19 1   
    36    17    30 1   
    37    18    31 1   
    38    19    32 1   
    39    19    33 1   
    40    32    37 1   
    41    32    38 1   
    42    32    39 1   
    43    33    40 1   
    44    33    41 1   
    45    33    42 1   
@<TRIPOS>SUBSTRUCTURE
     1 CB9         1 TEMP              0 ****  ****    0 ROOT
