@<TRIPOS>MOLECULE
CB9
   44    45     1     0     0
SMALL
bcc


@<TRIPOS>ATOM
      1 C           -0.6790    -2.0240     0.2760 c          1 CB9       0.569900
      2 N            0.4880     0.1130     0.1310 ns         1 CB9      -0.550900
      3 O            0.2100    -2.5810    -0.3100 o          1 CB9      -0.529100
      4 CA          -0.6340    -0.5680     0.7030 c3         1 CB9      -0.000300
      5 CB          -1.9360     0.1530     0.3630 c5         1 CB9       0.323600
      6 CAJ          6.6440    -1.0660     0.2840 ca         1 CB9      -0.166000
      7 CAK          5.9410    -1.1600    -0.9080 ca         1 CB9      -0.149500
      8 CAL          6.0930    -0.3610     1.3490 ca         1 CB9      -0.149500
      9 CAM          4.6960    -0.5540    -1.0310 ca         1 CB9      -0.108000
     10 CAN          4.8500     0.2410     1.2220 ca         1 CB9      -0.108000
     11 NAP         -3.0420    -0.2540     1.1770 n7         1 CB9      -0.753200
     12 SAQ         -2.4180    -0.1610    -1.4120 ss         1 CB9      -0.530200
     13 CAR         -4.7410     1.4830     0.6120 c          1 CB9       0.943600
     14 CAS          2.8320     2.2970     0.3200 c          1 CB9       0.945600
     15 CAT          1.7250     0.0540     0.6700 c          1 CB9       0.724100
     16 CAU          4.1350     0.1520     0.0280 ca         1 CB9       0.015700
     17 CAX         -4.3010     0.0070     0.4970 c5         1 CB9       0.031500
     18 CAY          2.7840     0.7960    -0.1160 c3         1 CB9      -0.264400
     19 CAZ         -4.1780    -0.4800    -0.9840 c5         1 CB9       0.076100
     20 H           -1.5860    -2.5750     0.5830 h4         1 CB9      -0.040800
     21 HN           0.3790     0.5300    -0.7800 hn         1 CB9       0.324500
     22 HA          -0.5360    -0.5620     1.7960 h1         1 CB9       0.107700
     23 HB          -1.7820     1.2240     0.4650 h2         1 CB9       0.156700
     24 HAJ          7.6140    -1.5360     0.3860 ha         1 CB9       0.095000
     25 HAK          6.3600    -1.7050    -1.7450 ha         1 CB9       0.101500
     26 HAL          6.6360    -0.2800     2.2820 ha         1 CB9       0.101500
     27 HAM          4.1540    -0.6300    -1.9670 ha         1 CB9       0.138000
     28 HAN          4.4370     0.7920     2.0570 ha         1 CB9       0.138000
     29 HNAP        -2.9860    -1.2410     1.3970 hn         1 CB9       0.318800
     30 HAX         -5.0680    -0.6050     0.9790 h1         1 CB9       0.047700
     31 HAY          2.5160     0.7770    -1.1780 hc         1 CB9       0.050700
     32 CAA         -4.4550    -1.9800    -1.0610 c3         1 CB9      -0.067100
     33 CAB         -5.0810     0.2580    -1.9650 c3         1 CB9      -0.067100
     34 OAF          1.9480    -0.5340     1.7160 o          1 CB9      -0.644100
     35 OAG         -5.9700     1.6700     0.6910 o          1 CB9      -0.820800
     36 OAH          3.5800     3.0170    -0.3600 o          1 CB9      -0.811300
     37 HAA         -4.2330    -2.3730    -2.0530 hc         1 CB9       0.030200
     38 HAAA        -3.8590    -2.5430    -0.3420 hc         1 CB9       0.030200
     39 HAAB        -5.5080    -2.1770    -0.8480 hc         1 CB9       0.030200
     40 HAB         -6.1270     0.1290    -1.6870 hc         1 CB9       0.030200
     41 HABA        -4.8620     1.3240    -1.9970 hc         1 CB9       0.030200
     42 HABB        -4.9550    -0.1400    -2.9730 hc         1 CB9       0.030200
     43 OAE          2.1340     2.6210     1.2940 o          1 CB9      -0.811300
     44 OAD         -3.8530     2.3560     0.6060 o          1 CB9      -0.820800
@<TRIPOS>BOND
     1     1     3 2   
     2     1     4 1   
     3     1    20 1   
     4     2     4 1   
     5     2    15 1   
     6     2    21 1   
     7     4     5 1   
     8     4    22 1   
     9     5    11 1   
    10     5    12 1   
    11     5    23 1   
    12     6     7 ar  
    13     6     8 ar  
    14     6    24 1   
    15     7     9 ar  
    16     7    25 1   
    17     8    10 ar  
    18     8    26 1   
    19     9    16 ar  
    20     9    27 1   
    21    10    16 ar  
    22    10    28 1   
    23    11    17 1   
    24    11    29 1   
    25    12    19 1   
    26    13    17 1   
    27    13    35 1   
    28    13    44 1   
    29    14    18 1   
    30    14    36 1   
    31    14    43 1   
    32    15    18 1   
    33    15    34 2   
    34    16    18 1   
    35    17    19 1   
    36    17    30 1   
    37    18    31 1   
    38    19    32 1   
    39    19    33 1   
    40    32    37 1   
    41    32    38 1   
    42    32    39 1   
    43    33    40 1   
    44    33    41 1   
    45    33    42 1   
@<TRIPOS>SUBSTRUCTURE
     1 CB9         1 TEMP              0 ****  ****    0 ROOT
