@<TRIPOS>MOLECULE
CBB
   55    58     1     0     0
SMALL
abcg2


@<TRIPOS>ATOM
      1 C1           3.9470     9.7720    26.1030 ca         1 CBB      -0.079000
      2 C2           4.9900     8.8700    25.9900 ca         1 CBB      -0.130000
      3 C3           5.3560     8.4680    24.7020 ca         1 CBB      -0.025200
      4 C4           4.6990     8.9710    23.5460 ca         1 CBB      -0.124800
      5 C5           3.6410     9.8840    23.6950 ca         1 CBB      -0.048000
      6 C6           3.2780    10.2760    24.9680 ca         1 CBB      -0.144000
      7 N7           6.3330     7.5920    24.2970 na         1 CBB      -0.070700
      8 C8           6.3210     7.5400    22.9050 cc         1 CBB      -0.137300
      9 C9           5.3280     8.3680    22.4240 cd         1 CBB      -0.147200
     10 C10          7.2120     6.8880    25.2130 c3         1 CBB       0.125900
     11 C11          8.4530     7.6700    25.5920 ca         1 CBB      -0.110300
     12 C14          8.8070     8.8550    24.9570 ca         1 CBB      -0.078000
     13 C15          9.9690     9.5280    25.3290 ca         1 CBB      -0.116000
     14 C16         10.7800     9.0270    26.3350 ca         1 CBB      -0.061000
     15 C17         10.4360     7.8380    26.9850 ca         1 CBB      -0.137900
     16 C18          9.2680     7.1750    26.6090 ca         1 CBB      -0.092000
     17 C19         11.3160     7.3110    28.0700 ce         1 CBB       0.668800
     18 N20         12.5780     7.5660    28.0350 n2         1 CBB      -0.830100
     19 N21         10.6960     6.5440    29.0140 nv         1 CBB      -1.100200
     20 C31          7.2820     6.7580    22.1290 c          1 CBB       0.621300
     21 O32          7.0090     6.8270    20.8120 os         1 CBB      -0.438100
     22 C33          7.8960     6.1190    19.9300 c3         1 CBB       0.211900
     23 C34          7.5730     4.6490    19.8360 ca         1 CBB      -0.111300
     24 C37          6.3440     4.1360    20.2460 ca         1 CBB      -0.081000
     25 C38          6.0760     2.7780    20.1200 ca         1 CBB      -0.112000
     26 C39          7.0260     1.9210    19.5810 ca         1 CBB      -0.081000
     27 C40          8.2590     2.4240    19.1540 ca         1 CBB      -0.189900
     28 C41          8.5190     3.7870    19.2910 ca         1 CBB      -0.083000
     29 C42          9.2960     1.5260    18.5610 ce         1 CBB       0.656800
     30 N43         10.1620     1.8890    17.6810 n2         1 CBB      -0.841100
     31 N44          9.2570     0.2210    18.9810 nv         1 CBB      -1.033200
     32 O49          8.2190     6.1300    22.5810 o          1 CBB      -0.479000
     33 H1           3.6410    10.1040    27.0870 ha         1 CBB       0.112000
     34 H2           5.5020     8.5010    26.8680 ha         1 CBB       0.119000
     35 H3           3.1320    10.2790    22.8230 ha         1 CBB       0.118000
     36 H4           2.4660    10.9790    25.1040 ha         1 CBB       0.114000
     37 H5           5.0910     8.5190    21.3840 ha         1 CBB       0.218000
     38 H6           6.6400     6.6590    26.1120 h1         1 CBB       0.077200
     39 H7           7.4960     5.9420    24.7610 h1         1 CBB       0.077200
     40 H8           8.1830     9.2560    24.1710 ha         1 CBB       0.123000
     41 H9          10.2330    10.4540    24.8340 ha         1 CBB       0.119000
     42 H10         11.6780     9.5490    26.6330 ha         1 CBB       0.137000
     43 H11          8.9930     6.2440    27.0890 ha         1 CBB       0.113000
     44 H12         13.0460     7.1700    28.8500 hn         1 CBB       0.368400
     45 H13         11.2310     6.2420    29.8120 hn         1 CBB       0.471000
     46 H14          9.7020     6.6230    29.1540 hn         1 CBB       0.471000
     47 H15          8.9260     6.2710    20.2490 h1         1 CBB       0.074700
     48 H16          7.7530     6.6010    18.9620 h1         1 CBB       0.074700
     49 H17          5.6000     4.7970    20.6700 ha         1 CBB       0.124000
     50 H18          5.1200     2.3880    20.4480 ha         1 CBB       0.118000
     51 H19          6.8050     0.8690    19.4710 ha         1 CBB       0.124000
     52 H20          9.4870     4.1780    19.0000 ha         1 CBB       0.118000
     53 H21         10.0060     2.8530    17.4030 hn         1 CBB       0.385400
     54 H22          8.8980     0.0350    19.9050 hn         1 CBB       0.469500
     55 H23         10.0390    -0.3550    18.7090 hn         1 CBB       0.469500
@<TRIPOS>BOND
     1     1     2 ar  
     2     1     6 ar  
     3     1    33 1   
     4     2     3 ar  
     5     2    34 1   
     6     3     4 ar  
     7     3     7 1   
     8     4     5 ar  
     9     4     9 1   
    10     5     6 ar  
    11     5    35 1   
    12     6    36 1   
    13     7     8 1   
    14     7    10 1   
    15     8     9 2   
    16     8    20 1   
    17     9    37 1   
    18    10    11 1   
    19    10    38 1   
    20    10    39 1   
    21    11    12 ar  
    22    11    16 ar  
    23    12    13 ar  
    24    12    40 1   
    25    13    14 ar  
    26    13    41 1   
    27    14    15 ar  
    28    14    42 1   
    29    15    16 ar  
    30    15    17 1   
    31    16    43 1   
    32    17    18 2   
    33    17    19 1   
    34    18    44 1   
    35    19    45 1   
    36    19    46 1   
    37    20    21 1   
    38    20    32 2   
    39    21    22 1   
    40    22    23 1   
    41    22    47 1   
    42    22    48 1   
    43    23    24 ar  
    44    23    28 ar  
    45    24    25 ar  
    46    24    49 1   
    47    25    26 ar  
    48    25    50 1   
    49    26    27 ar  
    50    26    51 1   
    51    27    28 ar  
    52    27    29 1   
    53    28    52 1   
    54    29    30 2   
    55    29    31 1   
    56    30    53 1   
    57    31    54 1   
    58    31    55 1   
@<TRIPOS>SUBSTRUCTURE
     1 CBB         1 TEMP              0 ****  ****    0 ROOT
