@<TRIPOS>MOLECULE
CBB
   55    58     1     0     0
SMALL
No Charge or Current Charge


@<TRIPOS>ATOM
      1 C1           4.3910     8.9920    26.5080 ca         1 CBB      -0.079000
      2 C2           5.5090     8.2080    26.1470 ca         1 CBB      -0.130000
      3 C3           5.7360     7.9740    24.7810 ca         1 CBB      -0.025200
      4 C4           4.9060     8.4970    23.8280 ca         1 CBB      -0.124800
      5 C5           3.7890     9.2790    24.1470 ca         1 CBB      -0.048000
      6 C6           3.5340     9.5240    25.5130 ca         1 CBB      -0.144000
      7 N7           6.7460     7.2510    24.1510 na         1 CBB      -0.070700
      8 C8           6.5920     7.3080    22.7440 cc         1 CBB      -0.137300
      9 C9           5.4450     8.0760    22.5610 cd         1 CBB      -0.147200
     10 C10          7.7990     6.5610    24.9260 c3         1 CBB       0.125900
     11 C11          8.9150     7.4800    25.4240 ca         1 CBB      -0.110300
     12 C14          9.4410     8.4910    24.5980 ca         1 CBB      -0.078000
     13 C15         10.4780     9.3130    25.0640 ca         1 CBB      -0.116000
     14 C16         10.9940     9.1360    26.3580 ca         1 CBB      -0.061000
     15 C17         10.4720     8.1390    27.2140 ca         1 CBB      -0.137900
     16 C18          9.4400     7.3020    26.7200 ca         1 CBB      -0.092000
     17 C19         11.0560     7.9390    28.5820 ce         1 CBB       0.668800
     18 N20         12.1780     8.4120    28.9400 n2         1 CBB      -0.830100
     19 N21         10.3060     7.3170    29.5160 nv         1 CBB      -1.100200
     20 C31          7.4060     6.7300    21.6430 c          1 CBB       0.621300
     21 O32          6.9180     7.0180    20.3920 os         1 CBB      -0.438100
     22 C33          7.5630     6.4370    19.2420 c3         1 CBB       0.211900
     23 C34          7.2220     4.9490    19.1690 ca         1 CBB      -0.111300
     24 C37          5.8850     4.5430    19.0030 ca         1 CBB      -0.081000
     25 C38          5.5680     3.1780    18.9280 ca         1 CBB      -0.112000
     26 C39          6.5820     2.2110    19.0230 ca         1 CBB      -0.081000
     27 C40          7.9310     2.5950    19.2090 ca         1 CBB      -0.189900
     28 C41          8.2370     3.9760    19.2630 ca         1 CBB      -0.083000
     29 C42          9.0160     1.5670    19.2700 ce         1 CBB       0.656800
     30 N43         10.2260     1.8080    18.9760 n2         1 CBB      -0.841100
     31 N44          8.7200     0.3680    19.8020 nv         1 CBB      -1.033200
     32 O49          8.4210     6.0710    21.8310 o          1 CBB      -0.479000
     33 H1           4.1870     9.1910    27.5590 ha         1 CBB       0.112000
     34 H2           6.1690     7.8040    26.9100 ha         1 CBB       0.119000
     35 H3           3.1430     9.6840    23.3710 ha         1 CBB       0.118000
     36 H4           2.6770    10.1270    25.8030 ha         1 CBB       0.114000
     37 H5           5.0210     8.3310    21.5920 ha         1 CBB       0.218000
     38 H6           7.3230     6.0620    25.7790 h1         1 CBB       0.077200
     39 H7           8.2380     5.7700    24.3090 h1         1 CBB       0.077200
     40 H8           9.0580     8.6390    23.5910 ha         1 CBB       0.123000
     41 H9          10.8860    10.0880    24.4200 ha         1 CBB       0.119000
     42 H10         11.8010     9.7830    26.6970 ha         1 CBB       0.137000
     43 H11          9.0450     6.5000    27.3390 ha         1 CBB       0.113000
     44 H12         12.4430     7.9600    29.8210 hn         1 CBB       0.368400
     45 H13         10.4950     7.5830    30.4750 hn         1 CBB       0.471000
     46 H14          9.3230     7.2270    29.2860 hn         1 CBB       0.471000
     47 H15          8.6500     6.5870    19.2780 h1         1 CBB       0.074700
     48 H16          7.2000     6.9210    18.3260 h1         1 CBB       0.074700
     49 H17          5.0930     5.2860    18.9290 ha         1 CBB       0.124000
     50 H18          4.5350     2.8690    18.7890 ha         1 CBB       0.118000
     51 H19          6.3120     1.1600    18.9400 ha         1 CBB       0.124000
     52 H20          9.2670     4.3020    19.4000 ha         1 CBB       0.118000
     53 H21         10.2630     2.7400    18.5450 hn         1 CBB       0.385400
     54 H22          7.9180     0.3590    20.4200 hn         1 CBB       0.469500
     55 H23          9.5270    -0.1560    20.1160 hn         1 CBB       0.469500
@<TRIPOS>BOND
     1     1     2 ar  
     2     1     6 ar  
     3     1    33 1   
     4     2     3 ar  
     5     2    34 1   
     6     3     4 ar  
     7     3     7 1   
     8     4     5 ar  
     9     4     9 1   
    10     5     6 ar  
    11     5    35 1   
    12     6    36 1   
    13     7     8 1   
    14     7    10 1   
    15     8     9 2   
    16     8    20 1   
    17     9    37 1   
    18    10    11 1   
    19    10    38 1   
    20    10    39 1   
    21    11    12 ar  
    22    11    16 ar  
    23    12    13 ar  
    24    12    40 1   
    25    13    14 ar  
    26    13    41 1   
    27    14    15 ar  
    28    14    42 1   
    29    15    16 ar  
    30    15    17 1   
    31    16    43 1   
    32    17    18 2   
    33    17    19 1   
    34    18    44 1   
    35    19    45 1   
    36    19    46 1   
    37    20    21 1   
    38    20    32 2   
    39    21    22 1   
    40    22    23 1   
    41    22    47 1   
    42    22    48 1   
    43    23    24 ar  
    44    23    28 ar  
    45    24    25 ar  
    46    24    49 1   
    47    25    26 ar  
    48    25    50 1   
    49    26    27 ar  
    50    26    51 1   
    51    27    28 ar  
    52    27    29 1   
    53    28    52 1   
    54    29    30 2   
    55    29    31 1   
    56    30    53 1   
    57    31    54 1   
    58    31    55 1   
@<TRIPOS>SUBSTRUCTURE
     1 CBB         1 TEMP              0 ****  ****    0 ROOT
