@<TRIPOS>MOLECULE
CBC
   37    39     1     0     0
SMALL
No Charge or Current Charge


@<TRIPOS>ATOM
      1 F49          4.6530    -1.0050    -1.5050 f          1 CBC      -0.102333
      2 C46          3.3020    -1.0710    -1.5080 c3         1 CBC       0.355300
      3 F50          2.8420    -0.0140    -2.2130 f          1 CBC      -0.102333
      4 F51          2.9870    -2.1580    -2.2510 f          1 CBC      -0.102333
      5 C41          2.7260    -1.1390    -0.0690 ca         1 CBC      -0.097300
      6 C42          2.1980    -2.3810     0.3720 ca         1 CBC      -0.089000
      7 C43          1.6500    -2.5340     1.6530 ca         1 CBC      -0.065000
      8 C44          1.6210    -1.4500     2.5340 ca         1 CBC      -0.103000
      9 C45          2.1450    -0.2140     2.1360 ca         1 CBC      -0.033000
     10 C40          2.7060    -0.0310     0.8480 ca         1 CBC      -0.208500
     11 S1           3.3280     1.6540     0.4720 sy         1 CBC       1.120600
     12 O38          4.4710     1.5940    -0.4430 o          1 CBC      -0.514000
     13 O39          3.3730     2.4320     1.7150 o          1 CBC      -0.514000
     14 N33          2.0430     2.3030    -0.4150 n7         1 CBC      -0.612300
     15 N32          0.7390     1.6670    -0.5280 ns         1 CBC      -0.350300
     16 C39         -0.2010     1.6070     0.4960 c          1 CBC       0.635300
     17 O37         -0.0530     2.1880     1.5650 o          1 CBC      -0.549100
     18 C54         -1.3790     0.7720     0.1560 cc         1 CBC      -0.061100
     19 C53         -2.4650     0.5210     0.9750 cd         1 CBC      -0.131200
     20 O40         -1.5280     0.1070    -1.0670 os         1 CBC      -0.174200
     21 C51         -2.7370    -0.5510    -0.9510 ca         1 CBC       0.077100
     22 C50         -3.3490    -0.3390     0.2570 ca         1 CBC      -0.127800
     23 C49         -4.5830    -0.9100     0.5910 ca         1 CBC      -0.038000
     24 C52         -3.3280    -1.3640    -1.9270 ca         1 CBC      -0.102000
     25 C47         -4.5750    -1.9590    -1.6290 ca         1 CBC      -0.071000
     26 C48         -5.1980    -1.7330    -0.3770 ca         1 CBC       0.095000
     27 Cl1         -6.7500    -2.4840    -0.0260 cl         1 CBC      -0.193000
     28 H42          2.2030    -3.2530    -0.2770 ha         1 CBC       0.136000
     29 H43          1.2480    -3.4970     1.9620 ha         1 CBC       0.126000
     30 H44          1.1930    -1.5670     3.5270 ha         1 CBC       0.127000
     31 H45          2.1010     0.6100     2.8460 ha         1 CBC       0.151000
     32 H33          2.0090     3.2830    -0.1210 hn         1 CBC       0.501000
     33 H32          0.4690     1.1710    -1.3760 hn         1 CBC       0.362500
     34 H53         -2.6040     0.9080     1.9830 ha         1 CBC       0.237000
     35 H49         -5.0510    -0.7290     1.5560 ha         1 CBC       0.142000
     36 H52         -2.8400    -1.5300    -2.8840 ha         1 CBC       0.138000
     37 H47         -5.0610    -2.5950    -2.3650 ha         1 CBC       0.136000
@<TRIPOS>BOND
     1     1     2 1   
     2     2     3 1   
     3     2     4 1   
     4     2     5 1   
     5     5     6 ar  
     6     5    10 ar  
     7     6     7 ar  
     8     6    28 1   
     9     7     8 ar  
    10     7    29 1   
    11     8     9 ar  
    12     8    30 1   
    13     9    10 ar  
    14     9    31 1   
    15    10    11 1   
    16    11    12 2   
    17    11    13 2   
    18    11    14 1   
    19    14    15 1   
    20    14    32 1   
    21    15    16 1   
    22    15    33 1   
    23    16    17 2   
    24    16    18 1   
    25    18    19 2   
    26    18    20 1   
    27    19    22 1   
    28    19    34 1   
    29    20    21 1   
    30    21    22 ar  
    31    21    24 ar  
    32    22    23 ar  
    33    23    26 ar  
    34    23    35 1   
    35    24    25 ar  
    36    24    36 1   
    37    25    26 ar  
    38    25    37 1   
    39    26    27 1   
@<TRIPOS>SUBSTRUCTURE
     1 CBC         1 TEMP              0 ****  ****    0 ROOT
