@<TRIPOS>MOLECULE
CBC
   37    39     1     0     0
SMALL
bcc


@<TRIPOS>ATOM
      1 F49          5.7560     0.2300    -0.5090 f          1 CBC      -0.223633
      2 C46          4.7640    -0.3860    -1.1560 c3         1 CBC       0.719200
      3 F50          4.0940     0.5300    -1.8540 f          1 CBC      -0.223633
      4 F51          5.3410    -1.1920    -2.0550 f          1 CBC      -0.223633
      5 C41          3.8810    -1.1660    -0.2130 ca         1 CBC      -0.097300
      6 C42          4.0490    -2.5430    -0.1760 ca         1 CBC      -0.107000
      7 C43          3.2950    -3.3400     0.6760 ca         1 CBC      -0.083000
      8 C44          2.3580    -2.7650     1.5110 ca         1 CBC      -0.121000
      9 C45          2.1830    -1.3890     1.5000 ca         1 CBC      -0.051000
     10 C40          2.9350    -0.5890     0.6500 ca         1 CBC      -0.208500
     11 S1           2.5880     1.1620     0.7640 sy         1 CBC       1.262200
     12 O38          3.7740     1.9580     0.5220 o          1 CBC      -0.584800
     13 O39          1.8370     1.3580     1.9890 o          1 CBC      -0.584800
     14 N33          1.6120     1.3770    -0.5900 n7         1 CBC      -0.557100
     15 N32          0.3370     0.9130    -0.4530 ns         1 CBC      -0.417300
     16 C39         -0.6500     1.7000     0.0600 c          1 CBC       0.702300
     17 O37         -0.4640     2.8270     0.4680 o          1 CBC      -0.549100
     18 C54         -1.9880     1.0930     0.0740 cc         1 CBC      -0.061100
     19 C53         -3.1640     1.6340     0.4640 cd         1 CBC      -0.081200
     20 O40         -2.1340    -0.1900    -0.3530 os         1 CBC      -0.174200
     21 C51         -3.4430    -0.4860    -0.2400 ca         1 CBC       0.077100
     22 C50         -4.1430     0.6110     0.2660 ca         1 CBC      -0.127800
     23 C49         -5.5230     0.5220     0.4620 ca         1 CBC      -0.056000
     24 C52         -4.0470    -1.6880    -0.5700 ca         1 CBC      -0.120000
     25 C47         -5.4130    -1.7660    -0.3740 ca         1 CBC      -0.089000
     26 C48         -6.1270    -0.6730     0.1340 ca         1 CBC       0.003400
     27 CL1         -7.8400    -0.8420     0.3550 cl         1 CBC      -0.101400
     28 H42          4.7760    -3.0210    -0.8150 ha         1 CBC       0.154000
     29 H43          3.4510    -4.4100     0.6780 ha         1 CBC       0.144000
     30 H44          1.7630    -3.3740     2.1770 ha         1 CBC       0.145000
     31 H45          1.4570    -0.9460     2.1640 ha         1 CBC       0.169000
     32 H33          1.6960     2.3100    -0.9890 hn         1 CBC       0.445800
     33 H32          0.1270     0.0710    -0.9690 hn         1 CBC       0.362500
     34 H53         -3.3190     2.6320     0.8410 ha         1 CBC       0.187000
     35 H49         -6.0900     1.3560     0.8520 ha         1 CBC       0.160000
     36 H52         -3.4890    -2.5270    -0.9610 ha         1 CBC       0.156000
     37 H47         -5.9340    -2.6810    -0.6190 ha         1 CBC       0.154000
@<TRIPOS>BOND
     1     1     2 1   
     2     2     3 1   
     3     2     4 1   
     4     2     5 1   
     5     5     6 ar  
     6     5    10 ar  
     7     6     7 ar  
     8     6    28 1   
     9     7     8 ar  
    10     7    29 1   
    11     8     9 ar  
    12     8    30 1   
    13     9    10 ar  
    14     9    31 1   
    15    10    11 1   
    16    11    12 2   
    17    11    13 2   
    18    11    14 1   
    19    14    15 1   
    20    14    32 1   
    21    15    16 1   
    22    15    33 1   
    23    16    17 2   
    24    16    18 1   
    25    18    19 2   
    26    18    20 1   
    27    19    22 1   
    28    19    34 1   
    29    20    21 1   
    30    21    22 ar  
    31    21    24 ar  
    32    22    23 ar  
    33    23    26 ar  
    34    23    35 1   
    35    24    25 ar  
    36    24    36 1   
    37    25    26 ar  
    38    25    37 1   
    39    26    27 1   
@<TRIPOS>SUBSTRUCTURE
     1 CBC         1 TEMP              0 ****  ****    0 ROOT
