@<TRIPOS>MOLECULE
CBD
   68    73     1     0     0
SMALL
No Charge or Current Charge


@<TRIPOS>ATOM
      1 C1           1.7620    -1.7500     5.4260 ca         1 CBD      -0.254500
      2 SA           3.1190    -2.9560     5.1040 s6         1 CBD       1.261100
      3 O1A          3.1120    -3.0670     3.6390 o          1 CBD      -0.689867
      4 O2A          4.2900    -2.2860     5.6910 o          1 CBD      -0.689867
      5 O3A          2.6330    -4.1340     5.8350 o          1 CBD      -0.689867
      6 C2           1.5970    -1.1460     6.6840 ca         1 CBD       0.446000
      7 N2           2.4910    -1.4120     7.6790 nv         1 CBD      -0.777000
      8 C3           0.5090    -0.2530     6.9130 ca         1 CBD      -0.271600
      9 C4           0.3250     0.4340     8.2620 c          1 CBD       0.602300
     10 O4           0.9050     0.0680     9.2810 o          1 CBD      -0.630100
     11 C5          -0.6310     1.5980     8.3420 ca         1 CBD      -0.108600
     12 C6          -0.6270     2.4410     9.4780 ca         1 CBD      -0.085000
     13 C7          -1.5220     3.5180     9.5760 ca         1 CBD      -0.127000
     14 C8          -2.4390     3.7610     8.5450 ca         1 CBD      -0.126000
     15 C9          -2.4580     2.9270     7.4160 ca         1 CBD      -0.076000
     16 C10         -1.5540     1.8450     7.3030 ca         1 CBD      -0.108600
     17 C11         -1.6020     0.9490     6.0960 c          1 CBD       0.592300
     18 O11         -2.5980     0.9530     5.3780 o          1 CBD      -0.591100
     19 C12         -0.4190     0.0240     5.8540 ca         1 CBD      -0.213600
     20 C13         -0.2170    -0.5670     4.5800 ca         1 CBD       0.351000
     21 C14          0.8470    -1.4610     4.3960 ca         1 CBD      -0.020000
     22 NB          -1.0730    -0.2940     3.5060 nu         1 CBD      -0.811000
     23 CB1         -1.9960    -0.4610    -0.1040 ca         1 CBD      -0.229500
     24 SB          -3.5640    -0.6240    -1.0690 s6         1 CBD       1.260100
     25 O1B         -4.4020    -1.4310    -0.1700 o          1 CBD      -0.690867
     26 O2B         -3.9580     0.7850    -1.2080 o          1 CBD      -0.690867
     27 O3B         -3.1210    -1.2850    -2.3070 o          1 CBD      -0.690867
     28 CB2         -0.7340    -0.3020    -0.7220 ca         1 CBD       0.359000
     29 CB3          0.4130    -0.1770     0.0910 ca         1 CBD      -0.103000
     30 CB4          0.3170    -0.1760     1.4920 ca         1 CBD      -0.110000
     31 CB5         -0.9340    -0.3180     2.1130 ca         1 CBD       0.237000
     32 CB6         -2.0790    -0.4440     1.3110 ca         1 CBD      -0.047000
     33 NC1          1.1730     1.1480    -2.5970 nb         1 CBD      -0.293000
     34 CC2          1.9350     1.6730    -3.5730 ca         1 CBD       0.303000
     35 Cl           3.1590     2.8390    -3.0980 cl         1 CBD      -0.190000
     36 NC3          1.8350     1.3830    -4.8820 nb         1 CBD      -0.317000
     37 CC4          0.8830     0.4840    -5.1790 ca         1 CBD       0.453900
     38 NC5          0.0550    -0.0950    -4.3000 nb         1 CBD      -0.312000
     39 CC6          0.2580     0.2620    -3.0250 ca         1 CBD       0.456900
     40 CD1          0.5610     0.4570    -8.9220 ca         1 CBD      -0.261500
     41 SD          -1.2680     0.2110    -8.9770 s6         1 CBD       1.255100
     42 O1D         -1.7440     1.5870    -8.7810 o          1 CBD      -0.687533
     43 O2D         -1.4700    -0.3450   -10.3230 o          1 CBD      -0.687533
     44 O3D         -1.5090    -0.7110    -7.8550 o          1 CBD      -0.687533
     45 CD2          1.2940     0.4220    -7.7130 ca         1 CBD       0.398000
     46 CD3          2.6910     0.6190    -7.7500 ca         1 CBD      -0.142000
     47 CD4          3.3550     0.8870    -8.9560 ca         1 CBD      -0.093000
     48 CD5          2.6240     0.9550   -10.1470 ca         1 CBD      -0.181000
     49 CD6          1.2370     0.7420   -10.1310 ca         1 CBD      -0.021000
     50 HN21         2.3770    -0.9300     8.5670 hn         1 CBD       0.350000
     51 HN22         3.4000    -1.7900     7.4300 hn         1 CBD       0.350000
     52 H6           0.0760     2.2660    10.2900 ha         1 CBD       0.125000
     53 H7          -1.5070     4.1600    10.4530 ha         1 CBD       0.094000
     54 H8          -3.1360     4.5920     8.6190 ha         1 CBD       0.097000
     55 H9          -3.1780     3.1270     6.6240 ha         1 CBD       0.134000
     56 H14          0.9440    -1.9510     3.4330 ha         1 CBD       0.166000
     57 HNB         -1.9700     0.0760     3.8230 hn         1 CBD       0.368000
     58 HB3          1.3960    -0.0900    -0.3590 ha         1 CBD       0.118000
     59 HB4          1.2170    -0.0460     2.0840 ha         1 CBD       0.112000
     60 HB6         -3.0460    -0.5350     1.7990 ha         1 CBD       0.138000
     61 HNC         -1.4210    -0.7390    -2.5680 hn         1 CBD       0.558000
     62 HND         -0.2410    -0.3140    -6.6400 hn         1 CBD       0.563000
     63 HD3          3.2790     0.5480    -6.8420 ha         1 CBD       0.121000
     64 HD4          4.4320     1.0390    -8.9660 ha         1 CBD       0.081000
     65 HD5          3.1300     1.1680   -11.0850 ha         1 CBD       0.080000
     66 HD6          0.6880     0.8020   -11.0690 ha         1 CBD       0.125000
     67 NC          -0.6050    -0.3110    -2.1130 nu         1 CBD      -0.918900
     68 ND           0.6680     0.1430    -6.4980 nu         1 CBD      -0.933900
@<TRIPOS>BOND
     1     1     2 1   
     2     1     6 ar  
     3     1    21 ar  
     4     2     3 1   
     5     2     4 1   
     6     2     5 1   
     7     6     7 1   
     8     6     8 ar  
     9     7    50 1   
    10     7    51 1   
    11     8     9 1   
    12     8    19 ar  
    13     9    10 2   
    14     9    11 1   
    15    11    12 ar  
    16    11    16 ar  
    17    12    13 ar  
    18    12    52 1   
    19    13    14 ar  
    20    13    53 1   
    21    14    15 ar  
    22    14    54 1   
    23    15    16 ar  
    24    15    55 1   
    25    16    17 1   
    26    17    18 2   
    27    17    19 1   
    28    19    20 ar  
    29    20    21 ar  
    30    20    22 1   
    31    21    56 1   
    32    22    31 1   
    33    22    57 1   
    34    23    24 1   
    35    23    28 ar  
    36    23    32 ar  
    37    24    25 1   
    38    24    26 1   
    39    24    27 1   
    40    28    29 ar  
    41    28    67 1   
    42    29    30 ar  
    43    29    58 1   
    44    30    31 ar  
    45    30    59 1   
    46    31    32 ar  
    47    32    60 1   
    48    33    34 ar  
    49    33    39 ar  
    50    34    35 1   
    51    34    36 ar  
    52    36    37 ar  
    53    37    38 ar  
    54    37    68 1   
    55    38    39 ar  
    56    39    67 1   
    57    40    41 1   
    58    40    45 ar  
    59    40    49 ar  
    60    41    42 1   
    61    41    43 1   
    62    41    44 1   
    63    45    46 ar  
    64    45    68 1   
    65    46    47 ar  
    66    46    63 1   
    67    47    48 ar  
    68    47    64 1   
    69    48    49 ar  
    70    48    65 1   
    71    49    66 1   
    72    61    67 1   
    73    62    68 1   
@<TRIPOS>SUBSTRUCTURE
     1 CBD         1 TEMP              0 ****  ****    0 ROOT
