@<TRIPOS>MOLECULE
CBD
   68    73     1     0     0
SMALL
abcg2


@<TRIPOS>ATOM
      1 C1           1.5000    -1.6950     5.2370 ca         1 CBD      -0.254500
      2 SA           2.5190    -3.1510     4.9330 s6         1 CBD       1.261100
      3 O1A          2.3820    -3.4400     3.5010 o          1 CBD      -0.689867
      4 O2A          3.8860    -2.7450     5.3200 o          1 CBD      -0.689867
      5 O3A          1.9500    -4.1820     5.8100 o          1 CBD      -0.689867
      6 C2           1.5110    -1.0460     6.5140 ca         1 CBD       0.446000
      7 N2           2.3990    -1.4430     7.4410 nv         1 CBD      -0.777000
      8 C3           0.5500    -0.0350     6.7330 ca         1 CBD      -0.271600
      9 C4           0.5070     0.6310     8.0280 c          1 CBD       0.602300
     10 O4           1.2580     0.3390     8.9580 o          1 CBD      -0.630100
     11 C5          -0.4740     1.7190     8.2370 ca         1 CBD      -0.108600
     12 C6          -0.5100     2.3790     9.4650 ca         1 CBD      -0.085000
     13 C7          -1.4180     3.4000     9.6810 ca         1 CBD      -0.127000
     14 C8          -2.3020     3.7720     8.6720 ca         1 CBD      -0.126000
     15 C9          -2.2770     3.1190     7.4540 ca         1 CBD      -0.076000
     16 C10         -1.3620     2.0900     7.2300 ca         1 CBD      -0.108600
     17 C11         -1.3570     1.3950     5.9290 c          1 CBD       0.592300
     18 O11         -2.1990     1.7090     5.0880 o          1 CBD      -0.591100
     19 C12         -0.3520     0.3620     5.6880 ca         1 CBD      -0.213600
     20 C13         -0.2700    -0.2390     4.4240 ca         1 CBD       0.351000
     21 C14          0.6560    -1.2970     4.2520 ca         1 CBD      -0.020000
     22 NB          -1.0860     0.1000     3.3850 nu         1 CBD      -0.811000
     23 CB1         -1.8640    -0.6060    -0.1310 ca         1 CBD      -0.229500
     24 SB          -3.3360    -0.8430    -1.1340 s6         1 CBD       1.260100
     25 O1B         -4.4580    -0.9100    -0.1880 o          1 CBD      -0.690867
     26 O2B         -3.3790     0.3250    -2.0240 o          1 CBD      -0.690867
     27 O3B         -3.1020    -2.1140    -1.8510 o          1 CBD      -0.690867
     28 CB2         -0.5980    -0.6100    -0.7230 ca         1 CBD       0.359000
     29 CB3          0.5140    -0.3860     0.0810 ca         1 CBD      -0.103000
     30 CB4          0.3770    -0.1390     1.4340 ca         1 CBD      -0.110000
     31 CB5         -0.8830    -0.1620     2.0320 ca         1 CBD       0.237000
     32 CB6         -1.9990    -0.4000     1.2310 ca         1 CBD      -0.047000
     33 NC1          0.8460     0.9600    -2.5650 nb         1 CBD      -0.293000
     34 CC2          1.4470     1.6070    -3.5270 ca         1 CBD       0.303000
     35 CL           2.2860     3.0430    -3.0510 cl         1 CBD      -0.190000
     36 NC3          1.4990     1.3200    -4.8010 nb         1 CBD      -0.317000
     37 CC4          0.8300     0.2010    -5.1190 ca         1 CBD       0.453900
     38 NC5          0.1690    -0.5560    -4.2500 nb         1 CBD      -0.312000
     39 CC6          0.2030    -0.1400    -2.9890 ca         1 CBD       0.456900
     40 CD1          0.6540     0.4530    -8.7200 ca         1 CBD      -0.261500
     41 SD          -1.0300    -0.1650    -8.7960 s6         1 CBD       1.255100
     42 O1D         -1.8150     0.7550    -7.9610 o          1 CBD      -0.687533
     43 O2D         -1.4070    -0.1460   -10.2160 o          1 CBD      -0.687533
     44 O3D         -0.9570    -1.5330    -8.2340 o          1 CBD      -0.687533
     45 CD2          1.3700     0.4200    -7.5160 ca         1 CBD       0.398000
     46 CD3          2.6590     0.9480    -7.4810 ca         1 CBD      -0.142000
     47 CD4          3.2120     1.5200    -8.6170 ca         1 CBD      -0.093000
     48 CD5          2.5020     1.5510    -9.8070 ca         1 CBD      -0.181000
     49 CD6          1.2260     1.0100    -9.8540 ca         1 CBD      -0.021000
     50 HN21         2.4340    -0.9330     8.3080 hn         1 CBD       0.350000
     51 HN22         3.2090    -1.9670     7.1510 hn         1 CBD       0.350000
     52 H6           0.1740     2.0910    10.2510 ha         1 CBD       0.125000
     53 H7          -1.4400     3.9090    10.6350 ha         1 CBD       0.094000
     54 H8          -3.0110     4.5720     8.8390 ha         1 CBD       0.097000
     55 H9          -2.9660     3.4060     6.6720 ha         1 CBD       0.134000
     56 H14          0.6630    -1.8400     3.3180 ha         1 CBD       0.166000
     57 HNB         -1.8740     0.6850     3.6350 hn         1 CBD       0.368000
     58 HB3          1.5030    -0.3890    -0.3560 ha         1 CBD       0.118000
     59 HB4          1.2620     0.0730     2.0200 ha         1 CBD       0.112000
     60 HB6         -2.9820    -0.4200     1.6820 ha         1 CBD       0.138000
     61 HNC         -1.0540    -1.6110    -2.4760 hn         1 CBD       0.558000
     62 HND          0.1760    -0.9810    -6.5950 hn         1 CBD       0.563000
     63 HD3          3.2360     0.9080    -6.5700 ha         1 CBD       0.121000
     64 HD4          4.2120     1.9280    -8.5670 ha         1 CBD       0.081000
     65 HD5          2.9370     1.9880   -10.6960 ha         1 CBD       0.080000
     66 HD6          0.6690     1.0230   -10.7810 ha         1 CBD       0.125000
     67 NC          -0.4590    -0.8870    -2.0920 nu         1 CBD      -0.918900
     68 ND           0.8000    -0.2050    -6.4000 nu         1 CBD      -0.933900
@<TRIPOS>BOND
     1     1     2 1   
     2     1     6 ar  
     3     1    21 ar  
     4     2     3 1   
     5     2     4 1   
     6     2     5 1   
     7     6     7 1   
     8     6     8 ar  
     9     7    50 1   
    10     7    51 1   
    11     8     9 1   
    12     8    19 ar  
    13     9    10 2   
    14     9    11 1   
    15    11    12 ar  
    16    11    16 ar  
    17    12    13 ar  
    18    12    52 1   
    19    13    14 ar  
    20    13    53 1   
    21    14    15 ar  
    22    14    54 1   
    23    15    16 ar  
    24    15    55 1   
    25    16    17 1   
    26    17    18 2   
    27    17    19 1   
    28    19    20 ar  
    29    20    21 ar  
    30    20    22 1   
    31    21    56 1   
    32    22    31 1   
    33    22    57 1   
    34    23    24 1   
    35    23    28 ar  
    36    23    32 ar  
    37    24    25 1   
    38    24    26 1   
    39    24    27 1   
    40    28    29 ar  
    41    28    67 1   
    42    29    30 ar  
    43    29    58 1   
    44    30    31 ar  
    45    30    59 1   
    46    31    32 ar  
    47    32    60 1   
    48    33    34 ar  
    49    33    39 ar  
    50    34    35 1   
    51    34    36 ar  
    52    36    37 ar  
    53    37    38 ar  
    54    37    68 1   
    55    38    39 ar  
    56    39    67 1   
    57    40    41 1   
    58    40    45 ar  
    59    40    49 ar  
    60    41    42 1   
    61    41    43 1   
    62    41    44 1   
    63    45    46 ar  
    64    45    68 1   
    65    46    47 ar  
    66    46    63 1   
    67    47    48 ar  
    68    47    64 1   
    69    48    49 ar  
    70    48    65 1   
    71    49    66 1   
    72    61    67 1   
    73    62    68 1   
@<TRIPOS>SUBSTRUCTURE
     1 CBD         1 TEMP              0 ****  ****    0 ROOT
