@<TRIPOS>MOLECULE
CBE
   29    30     1     0     0
SMALL
No Charge or Current Charge


@<TRIPOS>ATOM
      1 C1          83.7670    99.0120   107.4250 c3         1 CBE      -0.052900
      2 C2          83.2640    97.9780   106.4340 c2         1 CBE       0.188900
      3 C3          83.9190    96.8410   106.0580 ce         1 CBE      -0.215600
      4 S4          83.1570    95.5500   105.0480 ss         1 CBE      -0.295600
      5 C5          81.4120    96.1130   105.1300 c6         1 CBE      -0.008400
      6 C6          81.3410    97.6320   104.9340 c6         1 CBE       0.158600
      7 O7          81.9990    98.3310   106.0130 os         1 CBE      -0.345100
      8 C8          85.2670    96.4570   106.6270 c          1 CBE       0.648300
      9 O9          86.0960    97.2890   106.9780 o          1 CBE      -0.587100
     10 N10         85.4380    95.0890   106.8020 ns         1 CBE      -0.146000
     11 C11         86.5130    94.3080   107.3070 ca         1 CBE      -0.018000
     12 C12         86.2920    92.9260   107.4690 ca         1 CBE      -0.145000
     13 C13         87.3080    92.0890   107.9600 ca         1 CBE      -0.086500
     14 C14         88.5610    92.6270   108.2900 ca         1 CBE      -0.136000
     15 C15         88.7970    94.0010   108.1270 ca         1 CBE      -0.086500
     16 C16         87.7800    94.8390   107.6370 ca         1 CBE      -0.145000
     17 H11         84.6200    99.5650   107.0160 hc         1 CBE       0.069033
     18 H12A        82.9930    99.7470   107.6780 hc         1 CBE       0.069033
     19 H13A        84.0830    98.5410   108.3630 hc         1 CBE       0.069033
     20 H51         80.9970    95.8440   106.1120 h1         1 CBE       0.086700
     21 H52         80.8350    95.5940   104.3520 h1         1 CBE       0.086700
     22 H61         80.2930    97.9590   104.8880 h1         1 CBE       0.071700
     23 H62         81.8230    97.9050   103.9840 h1         1 CBE       0.071700
     24 H10         84.6420    94.5440   106.4980 hn         1 CBE       0.163000
     25 H12         85.3240    92.4970   107.2160 ha         1 CBE       0.124500
     26 H13         87.1240    91.0230   108.0830 ha         1 CBE       0.111500
     27 H14         89.3500    91.9800   108.6690 ha         1 CBE       0.113000
     28 H15         89.7700    94.4180   108.3790 ha         1 CBE       0.111500
     29 H16         88.0010    95.8950   107.5150 ha         1 CBE       0.124500
@<TRIPOS>BOND
     1     1     2 1   
     2     1    17 1   
     3     1    18 1   
     4     1    19 1   
     5     2     3 2   
     6     2     7 1   
     7     3     4 1   
     8     3     8 1   
     9     4     5 1   
    10     5     6 1   
    11     5    20 1   
    12     5    21 1   
    13     6     7 1   
    14     6    22 1   
    15     6    23 1   
    16     8     9 2   
    17     8    10 1   
    18    10    11 1   
    19    10    24 1   
    20    11    12 ar  
    21    11    16 ar  
    22    12    13 ar  
    23    12    25 1   
    24    13    14 ar  
    25    13    26 1   
    26    14    15 ar  
    27    14    27 1   
    28    15    16 ar  
    29    15    28 1   
    30    16    29 1   
@<TRIPOS>SUBSTRUCTURE
     1 CBE         1 TEMP              0 ****  ****    0 ROOT
