@<TRIPOS>MOLECULE
CBE
   29    30     1     0     0
SMALL
abcg2


@<TRIPOS>ATOM
      1 C1          83.6970    98.7940   107.6120 c3         1 CBE      -0.052900
      2 C2          83.2570    97.8850   106.5060 c2         1 CBE       0.188900
      3 C3          83.8720    96.7400   106.1350 ce         1 CBE      -0.215600
      4 S4          83.2080    95.6300   104.9210 ss         1 CBE      -0.295600
      5 C5          81.5120    96.2360   104.9250 c6         1 CBE      -0.008400
      6 C6          81.5300    97.7440   104.8270 c6         1 CBE       0.158600
      7 O7          82.1210    98.3500   105.9670 os         1 CBE      -0.345100
      8 C8          85.1700    96.3330   106.7270 c          1 CBE       0.648300
      9 O9          86.0200    97.1380   107.0690 o          1 CBE      -0.587100
     10 N10         85.3350    94.9860   106.8360 ns         1 CBE      -0.146000
     11 C11         86.4490    94.2930   107.3210 ca         1 CBE      -0.018000
     12 C12         86.2290    93.0070   107.8200 ca         1 CBE      -0.145000
     13 C13         87.2840    92.2400   108.2850 ca         1 CBE      -0.086500
     14 C14         88.5790    92.7410   108.2650 ca         1 CBE      -0.136000
     15 C15         88.7980    94.0180   107.7660 ca         1 CBE      -0.086500
     16 C16         87.7500    94.7970   107.2940 ca         1 CBE      -0.145000
     17 H11         84.2820    99.6270   107.2180 hc         1 CBE       0.069033
     18 H12A        82.8160    99.2140   108.0980 hc         1 CBE       0.069033
     19 H13A        84.2960    98.2900   108.3610 hc         1 CBE       0.069033
     20 H51         80.9840    95.8990   105.8170 h1         1 CBE       0.086700
     21 H52         81.0210    95.8140   104.0500 h1         1 CBE       0.086700
     22 H61         80.5130    98.1350   104.7870 h1         1 CBE       0.071700
     23 H62         82.0550    98.0600   103.9230 h1         1 CBE       0.071700
     24 H10         84.5120    94.4190   106.6830 hn         1 CBE       0.163000
     25 H12         85.2220    92.6090   107.8470 ha         1 CBE       0.124500
     26 H13         87.0880    91.2470   108.6670 ha         1 CBE       0.111500
     27 H14         89.4050    92.1450   108.6280 ha         1 CBE       0.113000
     28 H15         89.8020    94.4200   107.7350 ha         1 CBE       0.111500
     29 H16         87.9610    95.7780   106.9010 ha         1 CBE       0.124500
@<TRIPOS>BOND
     1     1     2 1   
     2     1    17 1   
     3     1    18 1   
     4     1    19 1   
     5     2     3 2   
     6     2     7 1   
     7     3     4 1   
     8     3     8 1   
     9     4     5 1   
    10     5     6 1   
    11     5    20 1   
    12     5    21 1   
    13     6     7 1   
    14     6    22 1   
    15     6    23 1   
    16     8     9 2   
    17     8    10 1   
    18    10    11 1   
    19    10    24 1   
    20    11    12 ar  
    21    11    16 ar  
    22    12    13 ar  
    23    12    25 1   
    24    13    14 ar  
    25    13    26 1   
    26    14    15 ar  
    27    14    27 1   
    28    15    16 ar  
    29    15    28 1   
    30    16    29 1   
@<TRIPOS>SUBSTRUCTURE
     1 CBE         1 TEMP              0 ****  ****    0 ROOT
