@<TRIPOS>MOLECULE
CBF
   28    28     1     0     0
SMALL
No Charge or Current Charge


@<TRIPOS>ATOM
      1 O6          32.9560    18.6450    27.5620 oh         1 CBF      -0.726000
      2 C6          31.8650    19.5690    27.7710 c3         1 CBF       0.167600
      3 C5          32.1900    21.0400    27.3420 c6         1 CBF       0.184300
      4 O5          33.3160    21.5020    28.1480 os         1 CBF      -0.467000
      5 C1          33.7470    22.8750    27.9380 c6         1 CBF       0.317000
      6 O1          32.6210    23.6830    28.3470 oh         1 CBF      -0.726000
      7 C7          34.9950    23.2160    28.8800 c          1 CBF       0.597100
      8 O7          35.2350    22.6210    29.9250 o          1 CBF      -0.606100
      9 N1          35.8160    24.2280    28.5070 nt         1 CBF      -0.573000
     10 C2          34.0800    23.1060    26.4060 c6         1 CBF       0.151300
     11 O2          34.4110    24.4660    26.0520 oh         1 CBF      -0.702000
     12 C3          32.8910    22.6510    25.5170 c6         1 CBF       0.098300
     13 O3          33.2080    22.8190    24.1200 oh         1 CBF      -0.738000
     14 C4          32.5280    21.1710    25.8190 c6         1 CBF       0.125300
     15 O4          31.4330    20.7620    24.9670 oh         1 CBF      -0.722000
     16 HO6         32.7070    17.8000    28.0050 ho         1 CBF       0.504000
     17 H61         30.9730    19.2360    27.2230 h1         1 CBF       0.043200
     18 H62         31.5910    19.5900    28.8350 h1         1 CBF       0.043200
     19 H5          31.3040    21.6520    27.5670 h1         1 CBF       0.074700
     20 HO1         32.4610    23.4450    29.2890 ho         1 CBF       0.556000
     21 HN11        36.6060    24.4740    29.0820 hn         1 CBF       0.328000
     22 HN12        35.6140    24.7250    27.6480 hn         1 CBF       0.328000
     23 H2          34.9370    22.4580    26.1660 h1         1 CBF       0.052700
     24 HO2         34.1760    24.5140    25.0920 ho         1 CBF       0.520000
     25 H3          32.0150    23.2670    25.7740 h1         1 CBF       0.075700
     26 HO3         32.5600    22.2400    23.6480 ho         1 CBF       0.512000
     27 H4          33.4160    20.5520    25.6130 h1         1 CBF       0.069700
     28 HO4         31.4400    19.7760    24.9350 ho         1 CBF       0.511000
@<TRIPOS>BOND
     1     1     2 1   
     2     1    16 1   
     3     2     3 1   
     4     2    17 1   
     5     2    18 1   
     6     3     4 1   
     7     3    14 1   
     8     3    19 1   
     9     4     5 1   
    10     5     6 1   
    11     5     7 1   
    12     5    10 1   
    13     6    20 1   
    14     7     8 2   
    15     7     9 1   
    16     9    21 1   
    17     9    22 1   
    18    10    11 1   
    19    10    12 1   
    20    10    23 1   
    21    11    24 1   
    22    12    13 1   
    23    12    14 1   
    24    12    25 1   
    25    13    26 1   
    26    14    15 1   
    27    14    27 1   
    28    15    28 1   
@<TRIPOS>SUBSTRUCTURE
     1 CBF         1 TEMP              0 ****  ****    0 ROOT
