@<TRIPOS>MOLECULE
CBF
   28    28     1     0     0
SMALL
abcg2


@<TRIPOS>ATOM
      1 O6          33.5660    18.8930    27.3950 oh         1 CBF      -0.726000
      2 C6          32.3510    19.5170    27.8080 c3         1 CBF       0.167600
      3 C5          32.3520    20.9680    27.3860 c6         1 CBF       0.184300
      4 O5          33.4020    21.6280    28.1140 os         1 CBF      -0.467000
      5 C1          33.4920    23.0220    27.9000 c6         1 CBF       0.317000
      6 O1          32.3280    23.6810    28.2920 oh         1 CBF      -0.726000
      7 C7          34.6530    23.5220    28.7960 c          1 CBF       0.597100
      8 O7          34.4700    24.5070    29.5080 o          1 CBF      -0.606100
      9 N1          35.7930    22.8380    28.7190 nt         1 CBF      -0.573000
     10 C2          33.7810    23.2730    26.4100 c6         1 CBF       0.151300
     11 O2          33.9080    24.6670    26.1960 oh         1 CBF      -0.702000
     12 C3          32.6730    22.6600    25.5700 c6         1 CBF       0.098300
     13 O3          33.0140    22.8710    24.1960 oh         1 CBF      -0.738000
     14 C4          32.5480    21.1730    25.8830 c6         1 CBF       0.125300
     15 O4          31.4250    20.5960    25.2230 oh         1 CBF      -0.722000
     16 HO6         33.5140    17.9570    27.6220 ho         1 CBF       0.504000
     17 H61         31.4850    19.0300    27.3520 h1         1 CBF       0.043200
     18 H62         32.2420    19.4740    28.8970 h1         1 CBF       0.043200
     19 H5          31.3870    21.3970    27.6770 h1         1 CBF       0.074700
     20 HO1         32.5930    24.2910    29.0050 ho         1 CBF       0.556000
     21 HN11        36.5770    23.1030    29.2960 hn         1 CBF       0.328000
     22 HN12        35.8490    21.9790    28.1950 hn         1 CBF       0.328000
     23 H2          34.7210    22.7660    26.1610 h1         1 CBF       0.052700
     24 HO2         33.9540    24.8010    25.2390 ho         1 CBF       0.520000
     25 H3          31.7270    23.1590    25.7960 h1         1 CBF       0.075700
     26 HO3         32.2100    23.0530    23.6980 ho         1 CBF       0.512000
     27 H4          33.4680    20.6710    25.5710 h1         1 CBF       0.069700
     28 HO4         31.6080    20.5870    24.2750 ho         1 CBF       0.511000
@<TRIPOS>BOND
     1     1     2 1   
     2     1    16 1   
     3     2     3 1   
     4     2    17 1   
     5     2    18 1   
     6     3     4 1   
     7     3    14 1   
     8     3    19 1   
     9     4     5 1   
    10     5     6 1   
    11     5     7 1   
    12     5    10 1   
    13     6    20 1   
    14     7     8 2   
    15     7     9 1   
    16     9    21 1   
    17     9    22 1   
    18    10    11 1   
    19    10    12 1   
    20    10    23 1   
    21    11    24 1   
    22    12    13 1   
    23    12    14 1   
    24    12    25 1   
    25    13    26 1   
    26    14    15 1   
    27    14    27 1   
    28    15    28 1   
@<TRIPOS>SUBSTRUCTURE
     1 CBF         1 TEMP              0 ****  ****    0 ROOT
