@<TRIPOS>MOLECULE
CBG
   10     9     1     0     0
SMALL
bcc


@<TRIPOS>ATOM
      1 C1          -0.6880     0.2450     0.3570 c          1 CBG       0.573900
      2 O1          -1.7580     0.1250    -0.1860 o          1 CBG      -0.514100
      3 C2           0.5350    -0.5640     0.0610 c3         1 CBG      -0.204400
      4 C3           1.7480     0.3320    -0.1810 c3         1 CBG      -0.083100
      5 H11         -0.5420     1.0010     1.1510 h4         1 CBG      -0.021800
      6 H21          0.3510    -1.2310    -0.7820 hc         1 CBG       0.066200
      7 H22          0.7200    -1.1880     0.9430 hc         1 CBG       0.066200
      8 H31          1.9200     1.0020     0.6620 hc         1 CBG       0.039033
      9 H32          2.6450    -0.2710    -0.3120 hc         1 CBG       0.039033
     10 H33          1.6190     0.9410    -1.0750 hc         1 CBG       0.039033
@<TRIPOS>BOND
     1     1     2 2   
     2     1     3 1   
     3     1     5 1   
     4     3     4 1   
     5     3     6 1   
     6     3     7 1   
     7     4     8 1   
     8     4     9 1   
     9     4    10 1   
@<TRIPOS>SUBSTRUCTURE
     1 CBG         1 TEMP              0 ****  ****    0 ROOT
