@<TRIPOS>MOLECULE
CBG
   10     9     1     0     0
SMALL
No Charge or Current Charge


@<TRIPOS>ATOM
      1 C1          -0.7120     0.2470     0.4080 c          1 CBG       0.573900
      2 O1          -1.4750     0.5970    -0.4860 o          1 CBG      -0.514100
      3 C2           0.5570    -0.5730     0.1530 c3         1 CBG      -0.204400
      4 C3           1.7440     0.3250    -0.2590 c3         1 CBG      -0.083100
      5 H11         -0.8990     0.5280     1.4680 h4         1 CBG      -0.021800
      6 H21          0.3680    -1.3020    -0.6440 hc         1 CBG       0.066200
      7 H22          0.8360    -1.0780     1.0850 hc         1 CBG       0.066200
      8 H31          1.9650     1.0630     0.5230 hc         1 CBG       0.039033
      9 H32          2.6440    -0.2800    -0.4220 hc         1 CBG       0.039033
     10 H33          1.5210     0.8640    -1.1880 hc         1 CBG       0.039033
@<TRIPOS>BOND
     1     1     2 2   
     2     1     3 1   
     3     1     5 1   
     4     3     4 1   
     5     3     6 1   
     6     3     7 1   
     7     4     8 1   
     8     4     9 1   
     9     4    10 1   
@<TRIPOS>SUBSTRUCTURE
     1 CBG         1 TEMP              0 ****  ****    0 ROOT
