@<TRIPOS>MOLECULE
CBH
   30    29     1     0     0
SMALL
abcg2


@<TRIPOS>ATOM
      1 O11         43.5870     6.1090   -27.7250 o          1 CBH      -0.736500
      2 C12         43.5030     5.0930   -28.4610 c          1 CBH       0.718000
      3 O13         42.6710     4.1580   -28.3480 o          1 CBH      -0.736500
      4 C14         44.5530     4.9710   -29.5910 c3         1 CBH       0.018500
      5 N15         44.6840     6.2690   -30.2680 n8         1 CBH      -0.991200
      6 C16         45.8920     4.4660   -29.0230 c3         1 CBH      -0.078400
      7 C17         45.8000     3.0990   -28.3570 c3         1 CBH       0.108600
      8 S18         47.4510     2.5570   -27.7990 ss         1 CBH      -0.554000
      9 C19         47.0090     1.0190   -26.9210 c3         1 CBH       0.094600
     10 C20         48.2420     0.3980   -26.2760 c3         1 CBH      -0.070400
     11 C21         47.9130    -0.8880   -25.5170 c3         1 CBH      -0.059400
     12 C22         49.1400    -1.5020   -24.8390 c3         1 CBH      -0.194400
     13 C23         48.8100    -2.8020   -24.0860 c          1 CBH       0.706000
     14 O25         48.4200    -3.7780   -24.7810 o          1 CBH      -0.751000
     15 O24         48.9440    -2.8010   -22.8330 o          1 CBH      -0.751000
     16 H14         44.1830     4.2390   -30.3130 h1         1 CBH       0.046700
     17 H151        44.8120     6.9740   -29.5470 hn         1 CBH       0.374500
     18 H152        45.5250     6.2770   -30.8390 hn         1 CBH       0.374500
     19 H161        46.2640     5.2030   -28.3050 hc         1 CBH       0.027700
     20 H162        46.6140     4.4240   -29.8450 hc         1 CBH       0.027700
     21 H171        45.4040     2.3560   -29.0530 h1         1 CBH       0.068700
     22 H172        45.1440     3.1340   -27.4870 h1         1 CBH       0.068700
     23 H191        46.5570     0.3280   -27.6350 h1         1 CBH       0.053700
     24 H192        46.2630     1.2640   -26.1630 h1         1 CBH       0.053700
     25 H201        48.6950     1.1200   -25.5900 hc         1 CBH       0.036200
     26 H102        48.9900     0.1830   -27.0460 hc         1 CBH       0.036200
     27 H211        47.4780    -1.6190   -26.2040 hc         1 CBH       0.038700
     28 H212        47.1500    -0.6740   -24.7610 hc         1 CBH       0.038700
     29 H221        49.5760    -0.7800   -24.1450 hc         1 CBH       0.015700
     30 H222        49.8920    -1.7270   -25.6020 hc         1 CBH       0.015700
@<TRIPOS>BOND
     1     1     2 1   
     2     2     3 1   
     3     2     4 1   
     4     4     5 1   
     5     4     6 1   
     6     4    16 1   
     7     5    17 1   
     8     5    18 1   
     9     6     7 1   
    10     6    19 1   
    11     6    20 1   
    12     7     8 1   
    13     7    21 1   
    14     7    22 1   
    15     8     9 1   
    16     9    10 1   
    17     9    23 1   
    18     9    24 1   
    19    10    11 1   
    20    10    25 1   
    21    10    26 1   
    22    11    12 1   
    23    11    27 1   
    24    11    28 1   
    25    12    13 1   
    26    12    29 1   
    27    12    30 1   
    28    13    14 1   
    29    13    15 1   
@<TRIPOS>SUBSTRUCTURE
     1 CBH         1 TEMP              0 ****  ****    0 ROOT
