@<TRIPOS>MOLECULE
CBH
   30    29     1     0     0
SMALL
No Charge or Current Charge


@<TRIPOS>ATOM
      1 O11         43.5010     6.0140   -27.6360 o          1 CBH      -0.736500
      2 C12         43.3990     5.1150   -28.4620 c          1 CBH       0.718000
      3 O13         42.4470     4.3470   -28.4980 o          1 CBH      -0.736500
      4 C14         44.5060     4.9930   -29.5940 c3         1 CBH       0.018500
      5 N15         44.7230     6.2120   -30.4550 n8         1 CBH      -0.991200
      6 C16         45.8670     4.5210   -29.0150 c3         1 CBH      -0.078400
      7 C17         45.7780     3.1900   -28.2360 c3         1 CBH       0.108600
      8 S18         47.4570     2.6660   -27.6510 ss         1 CBH      -0.554000
      9 C19         47.0140     1.0820   -26.7990 c3         1 CBH       0.094600
     10 C20         48.2710     0.4160   -26.2070 c3         1 CBH      -0.070400
     11 C21         47.9630    -0.9140   -25.4840 c3         1 CBH      -0.059400
     12 C22         49.2220    -1.5900   -24.8870 c3         1 CBH      -0.194400
     13 C23         48.8380    -2.9070   -24.1840 c          1 CBH       0.706000
     14 O25         48.8210    -3.9320   -24.8480 o          1 CBH      -0.751000
     15 O24         48.5220    -2.8620   -23.0050 o          1 CBH      -0.751000
     16 H14         44.1610     4.1980   -30.2700 h1         1 CBH       0.046700
     17 H151        44.9740     7.0020   -29.8480 hn         1 CBH       0.374500
     18 H152        45.5570     6.0730   -31.0380 hn         1 CBH       0.374500
     19 H161        46.2700     5.2940   -28.3490 hc         1 CBH       0.027700
     20 H162        46.5850     4.3970   -29.8350 hc         1 CBH       0.027700
     21 H171        45.3620     2.4080   -28.8870 h1         1 CBH       0.068700
     22 H172        45.1160     3.3040   -27.3670 h1         1 CBH       0.068700
     23 H191        46.5400     0.4040   -27.5220 h1         1 CBH       0.053700
     24 H192        46.2930     1.2930   -25.9980 h1         1 CBH       0.053700
     25 H201        48.7460     1.1100   -25.5030 hc         1 CBH       0.036200
     26 H102        48.9910     0.2310   -27.0140 hc         1 CBH       0.036200
     27 H211        47.4830    -1.6050   -26.1900 hc         1 CBH       0.038700
     28 H212        47.2390    -0.7270   -24.6800 hc         1 CBH       0.038700
     29 H221        49.6320    -0.8750   -24.1630 hc         1 CBH       0.015700
     30 H222        49.8870    -1.7890   -25.7360 hc         1 CBH       0.015700
@<TRIPOS>BOND
     1     1     2 1   
     2     2     3 1   
     3     2     4 1   
     4     4     5 1   
     5     4     6 1   
     6     4    16 1   
     7     5    17 1   
     8     5    18 1   
     9     6     7 1   
    10     6    19 1   
    11     6    20 1   
    12     7     8 1   
    13     7    21 1   
    14     7    22 1   
    15     8     9 1   
    16     9    10 1   
    17     9    23 1   
    18     9    24 1   
    19    10    11 1   
    20    10    25 1   
    21    10    26 1   
    22    11    12 1   
    23    11    27 1   
    24    11    28 1   
    25    12    13 1   
    26    12    29 1   
    27    12    30 1   
    28    13    14 1   
    29    13    15 1   
@<TRIPOS>SUBSTRUCTURE
     1 CBH         1 TEMP              0 ****  ****    0 ROOT
