@<TRIPOS>MOLECULE
CBJ
   37    40     1     0     0
SMALL
bcc


@<TRIPOS>ATOM
      1 O1           0.4720    -3.7880     1.3760 o          1 CBJ      -0.563500
      2 C2           0.8930    -2.7700     0.8860 c          1 CBJ       0.602500
      3 C3           2.3140    -2.1900     1.0880 c          1 CBJ       0.515700
      4 O4           3.1630    -2.7130     1.7570 o          1 CBJ      -0.472100
      5 C5           2.3270    -0.9570     0.3130 ca         1 CBJ      -0.267600
      6 C6           3.3260    -0.0210     0.1160 ca         1 CBJ      -0.010000
      7 C7           3.0300     1.0620    -0.6970 ca         1 CBJ      -0.079900
      8 BR8          4.3450     2.3780    -1.0090 br         1 CBJ      -0.121100
      9 C9           1.7760     1.1950    -1.2890 ca         1 CBJ      -0.042000
     10 C10          0.7740     0.2500    -1.0890 ca         1 CBJ      -0.145000
     11 C11          1.0680    -0.8290    -0.2770 ca         1 CBJ       0.125600
     12 N12          0.2430    -1.9020     0.0660 n          1 CBJ      -0.365000
     13 C13         -1.1340    -2.0330    -0.3660 c3         1 CBJ       0.157300
     14 C14         -2.0270    -0.9850     0.2550 ca         1 CBJ      -0.117300
     15 C15         -2.0260    -0.8160     1.6380 ca         1 CBJ      -0.124000
     16 C16         -2.8280     0.1360     2.2370 ca         1 CBJ      -0.159000
     17 C17         -3.6580     0.9340     1.4580 ca         1 CBJ       0.044100
     18 O18         -4.4270     1.8640     2.0730 os         1 CBJ      -0.322900
     19 C19         -4.9740     2.8410     1.2000 c6         1 CBJ       0.095400
     20 C20         -5.5140     2.1830    -0.0470 c6         1 CBJ       0.095400
     21 O21         -4.4740     1.5050    -0.7300 os         1 CBJ      -0.272900
     22 C22         -3.6740     0.7570     0.0740 ca         1 CBJ       0.063100
     23 C23         -2.8650    -0.2000    -0.5310 ca         1 CBJ      -0.095600
     24 C24         -2.9400    -0.3550    -2.0450 c          1 CBJ       0.933200
     25 O25         -3.7190    -1.2250    -2.4640 o          1 CBJ      -0.812800
     26 O26         -2.2020     0.3980    -2.7090 o          1 CBJ      -0.812800
     27 H6           4.2950    -0.1420     0.5830 ha         1 CBJ       0.150000
     28 H9           1.5620     2.0460    -1.9220 ha         1 CBJ       0.153000
     29 H10         -0.1920     0.3780    -1.5650 ha         1 CBJ       0.221000
     30 H13         -1.1590    -1.9930    -1.4560 h1         1 CBJ       0.083700
     31 H13A        -1.4620    -3.0350    -0.0870 h1         1 CBJ       0.083700
     32 H15         -1.3890    -1.4300     2.2640 ha         1 CBJ       0.120000
     33 H16         -2.8200     0.2710     3.3120 ha         1 CBJ       0.126000
     34 H19         -5.7740     3.3450     1.7410 h1         1 CBJ       0.051200
     35 H19A        -4.2120     3.5830     0.9410 h1         1 CBJ       0.051200
     36 H20         -6.3180     1.4840     0.2070 h1         1 CBJ       0.055200
     37 H20A        -5.9140     2.9330    -0.7280 h1         1 CBJ       0.055200
@<TRIPOS>BOND
     1     1     2 2   
     2     2     3 1   
     3     2    12 1   
     4     3     4 2   
     5     3     5 1   
     6     5     6 ar  
     7     5    11 ar  
     8     6     7 ar  
     9     6    27 1   
    10     7     8 1   
    11     7     9 ar  
    12     9    10 ar  
    13     9    28 1   
    14    10    11 ar  
    15    10    29 1   
    16    11    12 1   
    17    12    13 1   
    18    13    14 1   
    19    13    30 1   
    20    13    31 1   
    21    14    15 ar  
    22    14    23 ar  
    23    15    16 ar  
    24    15    32 1   
    25    16    17 ar  
    26    16    33 1   
    27    17    18 1   
    28    17    22 ar  
    29    18    19 1   
    30    19    20 1   
    31    19    34 1   
    32    19    35 1   
    33    20    21 1   
    34    20    36 1   
    35    20    37 1   
    36    21    22 1   
    37    22    23 ar  
    38    23    24 1   
    39    24    25 1   
    40    24    26 1   
@<TRIPOS>SUBSTRUCTURE
     1 CBJ         1 TEMP              0 ****  ****    0 ROOT
