@<TRIPOS>MOLECULE
CBJ
   37    40     1     0     0
SMALL
No Charge or Current Charge


@<TRIPOS>ATOM
      1 O1           0.5070    -4.0240     1.1170 o          1 CBJ      -0.488000
      2 C2           0.9480    -2.9410     0.7390 c          1 CBJ       0.460000
      3 C3           2.3550    -2.3090     1.0500 c          1 CBJ       0.515700
      4 O4           3.2770    -2.7920     1.7030 o          1 CBJ      -0.472100
      5 C5           2.3290    -0.9840     0.3680 ca         1 CBJ      -0.267600
      6 C6           3.3380    -0.0170     0.2650 ca         1 CBJ       0.008000
      7 C7           3.0680     1.1320    -0.5060 ca         1 CBJ      -0.079900
      8 Br8          4.4070     2.4860    -0.6850 br         1 CBJ      -0.121100
      9 C9           1.8280     1.2820    -1.1720 ca         1 CBJ      -0.024000
     10 C10          0.8310     0.2900    -1.0580 ca         1 CBJ      -0.127000
     11 C11          1.0850    -0.8200    -0.2400 ca         1 CBJ       0.125600
     12 N12          0.2830    -1.9870    -0.0480 n          1 CBJ      -0.298000
     13 C13         -1.1420    -2.0890    -0.4210 c3         1 CBJ       0.157300
     14 C14         -2.0190    -0.9960     0.2000 ca         1 CBJ      -0.117300
     15 C15         -1.8980    -0.7230     1.5790 ca         1 CBJ      -0.106000
     16 C16         -2.6710     0.2810     2.1830 ca         1 CBJ      -0.141000
     17 C17         -3.5780     1.0230     1.4160 ca         1 CBJ       0.044100
     18 O18         -4.3140     2.0200     2.0260 os         1 CBJ      -0.346100
     19 C19         -4.9990     2.9600     1.1710 c6         1 CBJ       0.118600
     20 C20         -5.6590     2.2100    -0.0050 c6         1 CBJ       0.118600
     21 O21         -4.6640     1.4420    -0.7150 os         1 CBJ      -0.296100
     22 C22         -3.7360     0.7400     0.0360 ca         1 CBJ       0.063100
     23 C23         -2.9530    -0.2590    -0.5780 ca         1 CBJ      -0.095600
     24 C24         -3.1450    -0.5350    -2.0460 c          1 CBJ       0.722600
     25 O25         -3.8180    -1.5060    -2.3640 o          1 CBJ      -0.707500
     26 O26         -2.5390     0.1640    -2.8460 o          1 CBJ      -0.707500
     27 H6           4.3020    -0.1530     0.7520 ha         1 CBJ       0.132000
     28 H9           1.6450     2.1630    -1.7830 ha         1 CBJ       0.135000
     29 H10         -0.1130     0.3930    -1.5860 ha         1 CBJ       0.203000
     30 H13         -1.1970    -2.0600    -1.5160 h1         1 CBJ       0.083700
     31 H13A        -1.5320    -3.0670    -0.1120 h1         1 CBJ       0.083700
     32 H15         -1.1970    -1.2880     2.1890 ha         1 CBJ       0.102000
     33 H16         -2.5590     0.4900     3.2440 ha         1 CBJ       0.108000
     34 H19         -5.7520     3.5040     1.7570 h1         1 CBJ       0.051200
     35 H19A        -4.2710     3.6850     0.7820 h1         1 CBJ       0.051200
     36 H20         -6.4290     1.5270     0.3800 h1         1 CBJ       0.055200
     37 H20A        -6.1360     2.9160    -0.6990 h1         1 CBJ       0.055200
@<TRIPOS>BOND
     1     1     2 2   
     2     2     3 1   
     3     2    12 1   
     4     3     4 2   
     5     3     5 1   
     6     5     6 ar  
     7     5    11 ar  
     8     6     7 ar  
     9     6    27 1   
    10     7     8 1   
    11     7     9 ar  
    12     9    10 ar  
    13     9    28 1   
    14    10    11 ar  
    15    10    29 1   
    16    11    12 1   
    17    12    13 1   
    18    13    14 1   
    19    13    30 1   
    20    13    31 1   
    21    14    15 ar  
    22    14    23 ar  
    23    15    16 ar  
    24    15    32 1   
    25    16    17 ar  
    26    16    33 1   
    27    17    18 1   
    28    17    22 ar  
    29    18    19 1   
    30    19    20 1   
    31    19    34 1   
    32    19    35 1   
    33    20    21 1   
    34    20    36 1   
    35    20    37 1   
    36    21    22 1   
    37    22    23 ar  
    38    23    24 1   
    39    24    25 1   
    40    24    26 1   
@<TRIPOS>SUBSTRUCTURE
     1 CBJ         1 TEMP              0 ****  ****    0 ROOT
