@<TRIPOS>MOLECULE
CBL
   37    37     1     0     0
SMALL
No Charge or Current Charge


@<TRIPOS>ATOM
      1 C1           0.0490    -0.3840    -0.9520 ca         1 CBL       0.308000
      2 C2           1.3000    -0.4650    -0.3060 ca         1 CBL      -0.184000
      3 C3           1.3920    -0.8140     1.0530 ca         1 CBL      -0.071000
      4 C4           0.2300    -1.0890     1.7940 ca         1 CBL      -0.084300
      5 C5          -1.0230    -1.0090     1.1620 ca         1 CBL      -0.071000
      6 C6          -1.1100    -0.6610    -0.1970 ca         1 CBL      -0.184000
      7 C7           0.3270    -1.4610     3.2680 c3         1 CBL      -0.040100
      8 C8           0.2670    -0.2210     4.1860 c3         1 CBL      -0.049400
      9 C9           0.3630    -0.5690     5.6920 c3         1 CBL      -0.206400
     10 C10          0.2970     0.7150     6.5370 c          1 CBL       0.717000
     11 N11         -0.0420    -0.0320    -2.3270 nh         1 CBL      -0.856400
     12 C12          0.9790     0.8370    -2.9790 c3         1 CBL       0.228300
     13 C13          2.0480     0.0720    -3.7920 c3         1 CBL       0.103600
     14 Cl14         3.2820     1.2010    -4.5140 cl         1 CBL      -0.298000
     15 C15         -1.1620    -0.5140    -3.1840 c3         1 CBL       0.228300
     16 C16         -2.2980     0.5130    -3.3930 c3         1 CBL       0.103600
     17 Cl17        -3.6470    -0.1710    -4.4090 cl         1 CBL      -0.298000
     18 O18         -0.8020     1.1230     6.8820 o          1 CBL      -0.741500
     19 O19          1.3420     1.2970     6.7860 o          1 CBL      -0.741500
     20 H2           2.2170    -0.2690    -0.8510 ha         1 CBL       0.102000
     21 H3           2.3680    -0.8700     1.5290 ha         1 CBL       0.113000
     22 H5          -1.9310    -1.2130     1.7240 ha         1 CBL       0.113000
     23 H6          -2.0930    -0.5990    -0.6520 ha         1 CBL       0.102000
     24 H71          1.2600    -2.0060     3.4570 hc         1 CBL       0.034700
     25 H72         -0.4870    -2.1470     3.5360 hc         1 CBL       0.034700
     26 H81         -0.6700     0.3180     3.9980 hc         1 CBL       0.042700
     27 H82          1.0850     0.4600     3.9190 hc         1 CBL       0.042700
     28 H91          1.3320    -1.0660     5.8240 hc         1 CBL       0.014700
     29 H92         -0.4970    -1.2150     5.9060 hc         1 CBL       0.014700
     30 H121         0.4800     1.5460    -3.6540 h1         1 CBL       0.058200
     31 H122         1.4860     1.4510    -2.2230 h1         1 CBL       0.058200
     32 H131         2.5810    -0.6380    -3.1480 h1         1 CBL       0.072200
     33 H132         1.5770    -0.4790    -4.6150 h1         1 CBL       0.072200
     34 H151        -0.7730    -0.7980    -4.1720 h1         1 CBL       0.058200
     35 H152        -1.5910    -1.4310    -2.7580 h1         1 CBL       0.058200
     36 H161        -2.7250     0.8110    -2.4280 h1         1 CBL       0.072200
     37 H162        -1.9150     1.4050    -3.9030 h1         1 CBL       0.072200
@<TRIPOS>BOND
     1     1     2 ar  
     2     1     6 ar  
     3     1    11 1   
     4     2     3 ar  
     5     2    20 1   
     6     3     4 ar  
     7     3    21 1   
     8     4     5 ar  
     9     4     7 1   
    10     5     6 ar  
    11     5    22 1   
    12     6    23 1   
    13     7     8 1   
    14     7    24 1   
    15     7    25 1   
    16     8     9 1   
    17     8    26 1   
    18     8    27 1   
    19     9    10 1   
    20     9    28 1   
    21     9    29 1   
    22    10    18 1   
    23    10    19 1   
    24    11    12 1   
    25    11    15 1   
    26    12    13 1   
    27    12    30 1   
    28    12    31 1   
    29    13    14 1   
    30    13    32 1   
    31    13    33 1   
    32    15    16 1   
    33    15    34 1   
    34    15    35 1   
    35    16    17 1   
    36    16    36 1   
    37    16    37 1   
@<TRIPOS>SUBSTRUCTURE
     1 CBL         1 TEMP              0 ****  ****    0 ROOT
