@<TRIPOS>MOLECULE
CBL
   37    37     1     0     0
SMALL
bcc


@<TRIPOS>ATOM
      1 C1           0.0930    -0.3860    -1.0360 ca         1 CBL       0.169600
      2 C2           1.3130    -0.2180    -0.3610 ca         1 CBL      -0.202000
      3 C3           1.4400    -0.5460     0.9790 ca         1 CBL      -0.089000
      4 C4           0.3820    -1.0620     1.7200 ca         1 CBL      -0.084300
      5 C5          -0.8240    -1.2360     1.0460 ca         1 CBL      -0.089000
      6 C6          -0.9760    -0.9080    -0.2920 ca         1 CBL      -0.202000
      7 C7           0.5240    -1.3650     3.1840 c3         1 CBL      -0.040100
      8 C8           0.1670    -0.1710     4.0730 c3         1 CBL      -0.049400
      9 C9           0.3670    -0.4710     5.5480 c3         1 CBL      -0.206400
     10 C10          0.0260     0.6680     6.5240 c          1 CBL       0.927600
     11 N11         -0.0440    -0.0550    -2.3720 nh         1 CBL      -0.718000
     12 C12          0.9710     0.6880    -3.0760 c3         1 CBL       0.228300
     13 C13          1.9790    -0.2430    -3.7330 c3         1 CBL       0.027000
     14 CL14         3.2070     0.7190    -4.6290 cl         1 CBL      -0.221400
     15 C15         -1.2360    -0.3840    -3.1120 c3         1 CBL       0.228300
     16 C16         -2.2850     0.7130    -2.9890 c3         1 CBL       0.027000
     17 CL17        -3.7480     0.2690    -3.9370 cl         1 CBL      -0.221400
     18 O18         -0.3970     1.7400     6.0470 o          1 CBL      -0.846800
     19 O19          0.2030     0.4180     7.7360 o          1 CBL      -0.846800
     20 H2           2.1880     0.1560    -0.8760 ha         1 CBL       0.120000
     21 H3           2.4040    -0.4010     1.4550 ha         1 CBL       0.131000
     22 H5          -1.6800    -1.6370     1.5770 ha         1 CBL       0.131000
     23 H6          -1.9480    -1.0590    -0.7420 ha         1 CBL       0.120000
     24 H71          1.5530    -1.6720     3.3950 hc         1 CBL       0.034700
     25 H72         -0.1100    -2.2160     3.4530 hc         1 CBL       0.034700
     26 H81         -0.8710     0.1180     3.8840 hc         1 CBL       0.042700
     27 H82          0.7770     0.6870     3.7780 hc         1 CBL       0.042700
     28 H91          1.4080    -0.7690     5.7210 hc         1 CBL       0.014700
     29 H92         -0.2260    -1.3490     5.8310 hc         1 CBL       0.014700
     30 H121         0.4940     1.3000    -3.8440 h1         1 CBL       0.058200
     31 H122         1.4770     1.3830    -2.4050 h1         1 CBL       0.058200
     32 H131         2.5140    -0.8480    -3.0040 h1         1 CBL       0.072200
     33 H132         1.4970    -0.9040    -4.4510 h1         1 CBL       0.072200
     34 H151        -0.9750    -0.5110    -4.1650 h1         1 CBL       0.058200
     35 H152        -1.6450    -1.3400    -2.7830 h1         1 CBL       0.058200
     36 H161        -2.6020     0.8630    -1.9590 h1         1 CBL       0.072200
     37 H162        -1.9190     1.6580    -3.3850 h1         1 CBL       0.072200
@<TRIPOS>BOND
     1     1     2 ar  
     2     1     6 ar  
     3     1    11 1   
     4     2     3 ar  
     5     2    20 1   
     6     3     4 ar  
     7     3    21 1   
     8     4     5 ar  
     9     4     7 1   
    10     5     6 ar  
    11     5    22 1   
    12     6    23 1   
    13     7     8 1   
    14     7    24 1   
    15     7    25 1   
    16     8     9 1   
    17     8    26 1   
    18     8    27 1   
    19     9    10 1   
    20     9    28 1   
    21     9    29 1   
    22    10    18 1   
    23    10    19 1   
    24    11    12 1   
    25    11    15 1   
    26    12    13 1   
    27    12    30 1   
    28    12    31 1   
    29    13    14 1   
    30    13    32 1   
    31    13    33 1   
    32    15    16 1   
    33    15    34 1   
    34    15    35 1   
    35    16    17 1   
    36    16    36 1   
    37    16    37 1   
@<TRIPOS>SUBSTRUCTURE
     1 CBL         1 TEMP              0 ****  ****    0 ROOT
