@<TRIPOS>MOLECULE
CBM
    7     6     1     0     0
SMALL
bcc


@<TRIPOS>ATOM
      1 C1          -1.6180     0.6520     1.2490 c          1 CBM       0.921600
      2 C2          -1.0450     0.2980    -0.1320 c3         1 CBM      -0.213100
      3 O1          -2.7660     0.2410     1.5140 o          1 CBM      -0.855800
      4 O2          -0.8950     1.3520     1.9870 o          1 CBM      -0.855800
      5 H21         -1.1350     1.1610    -0.7990 hc         1 CBM       0.001033
      6 H22          0.0170     0.0580    -0.0770 hc         1 CBM       0.001033
      7 H23         -1.5690    -0.5340    -0.6030 hc         1 CBM       0.001033
@<TRIPOS>BOND
     1     1     2 1   
     2     1     3 1   
     3     1     4 1   
     4     2     5 1   
     5     2     6 1   
     6     2     7 1   
@<TRIPOS>SUBSTRUCTURE
     1 CBM         1 TEMP              0 ****  ****    0 ROOT
