@<TRIPOS>MOLECULE
CBM
    7     6     1     0     0
SMALL
No Charge or Current Charge


@<TRIPOS>ATOM
      1 C1          -1.6250     0.6550     1.2390 c          1 CBM       0.711000
      2 C2          -1.0800     0.2800    -0.1470 c3         1 CBM      -0.213100
      3 O1          -2.6440     0.1030     1.6240 o          1 CBM      -0.750500
      4 O2          -1.0150     1.4870     1.8920 o          1 CBM      -0.750500
      5 H21         -0.9450     1.1940    -0.7390 hc         1 CBM       0.001033
      6 H22         -0.0290    -0.0180    -0.0510 hc         1 CBM       0.001033
      7 H23         -1.6750    -0.4720    -0.6790 hc         1 CBM       0.001033
@<TRIPOS>BOND
     1     1     2 1   
     2     1     3 1   
     3     1     4 1   
     4     2     5 1   
     5     2     6 1   
     6     2     7 1   
@<TRIPOS>SUBSTRUCTURE
     1 CBM         1 TEMP              0 ****  ****    0 ROOT
