@<TRIPOS>MOLECULE
CBN
   86    90     1     0     0
SMALL
bcc


@<TRIPOS>ATOM
      1 C7           2.1320     0.6330     8.8820 c3         1 CBN       0.114700
      2 C8          -0.3390     2.6770     5.3160 c3         1 CBN      -0.099100
      3 C12          1.9110     3.2890     6.1430 c3         1 CBN      -0.099100
      4 C13          0.8790     1.1320     6.9370 c6         1 CBN       0.117100
      5 C21          0.3380    -0.2460     6.5250 c6         1 CBN       0.129100
      6 C22          1.0750    -0.7730     5.3000 c6         1 CBN       0.118100
      7 C23          1.0880     0.2950     4.2110 c6         1 CBN       0.320900
      8 C24          1.0160     2.1180     5.7580 c6         1 CBN       0.185800
      9 CL1          2.7840    -2.1560     1.2920 cl         1 CBN      -0.049400
     10 C27          1.7040     0.2350     1.9190 ca         1 CBN       0.210100
     11 C28          2.1130    -0.6250     0.9030 ca         1 CBN      -0.059600
     12 C4           1.9640    -0.2480    -0.4250 ca         1 CBN       0.229100
     13 C11          2.2740    -0.8670    -2.7060 c          1 CBN       0.770800
     14 C31          1.7050     0.3970    -3.0870 cc         1 CBN      -0.257600
     15 C9           1.2700     1.2870    -2.1530 cd         1 CBN       0.281900
     16 C32          1.3950     0.9810    -0.7520 ca         1 CBN      -0.193800
     17 C33          0.9870     1.8320     0.2740 ca         1 CBN      -0.015000
     18 C35          1.1420     1.4730     1.5940 ca         1 CBN      -0.228000
     19 C14          0.5850     0.0970    -5.1910 c          1 CBN       0.685700
     20 C15          0.5950     0.3760    -6.6470 ca         1 CBN      -0.191600
     21 C16         -0.1190    -0.4780    -7.4890 ca         1 CBN      -0.032000
     22 C17         -0.1690    -0.2940    -8.8600 ca         1 CBN      -0.112300
     23 C18          0.5110     0.8050    -9.4030 ca         1 CBN       0.169100
     24 C19          1.2150     1.6780    -8.5760 ca         1 CBN      -0.238000
     25 C20          1.2580     1.4630    -7.2110 ca         1 CBN      -0.061000
     26 C25         -0.9640    -1.2300    -9.7340 c3         1 CBN       0.019100
     27 C26         -2.2970    -0.6450   -10.1140 c2         1 CBN      -0.171200
     28 C29         -3.4840    -0.9360    -9.5760 c2         1 CBN      -0.108400
     29 C30         -4.7350    -0.2650   -10.0640 c3         1 CBN      -0.056900
     30 C34         -3.7040    -1.9170    -8.4630 c3         1 CBN      -0.056900
     31 N1           1.5720     0.6970    -4.4540 ns         1 CBN      -0.490100
     32 O1           2.1490     0.9310     7.5050 os         1 CBN      -0.395600
     33 O2          -1.0530    -0.1390     6.2360 os         1 CBN      -0.447900
     34 O3           1.6810     1.4680     4.6690 os         1 CBN      -0.425600
     35 O4           1.8930    -0.2010     3.1730 os         1 CBN      -0.304900
     36 O5           0.7270     2.4460    -2.4570 oh         1 CBN      -0.468100
     37 O6           2.3740    -1.1150    -1.3640 os         1 CBN      -0.322200
     38 O7           2.6710    -1.7230    -3.4520 o          1 CBN      -0.548500
     39 O8          -0.2580    -0.6070    -4.6660 o          1 CBN      -0.565100
     40 O9           0.4490     0.9760   -10.7320 oh         1 CBN      -0.486100
     41 C1          -5.4720    -0.9260     5.9340 cc         1 CBN      -0.214000
     42 C2          -4.3910    -1.5480     6.5790 cc         1 CBN      -0.102000
     43 C3          -3.2580    -0.8220     6.2710 cd         1 CBN      -0.198900
     44 N2          -3.6440     0.2140     5.4610 na         1 CBN      -0.126100
     45 C5          -4.9760     0.1690     5.2460 cd         1 CBN      -0.085600
     46 C6          -5.6760     1.1610     4.3890 c3         1 CBN      -0.033800
     47 C10         -1.8990    -1.0630     6.7100 c          1 CBN       0.700700
     48 O10         -1.5760    -1.9770     7.4310 o          1 CBN      -0.516000
     49 O11          0.4470    -1.9460     4.8700 oh         1 CBN      -0.581800
     50 H71          3.1660     0.5380     9.2090 h1         1 CBN       0.036700
     51 H72          1.6550     1.4290     9.4630 h1         1 CBN       0.036700
     52 H73          1.6190    -0.3090     9.1080 h1         1 CBN       0.036700
     53 H81         -1.0100     1.9360     4.8880 hc         1 CBN       0.048700
     54 H82         -0.8550     3.1340     6.1600 hc         1 CBN       0.048700
     55 H83         -0.1880     3.4490     4.5610 hc         1 CBN       0.048700
     56 H121         1.9390     4.0200     5.3340 hc         1 CBN       0.048700
     57 H122         1.5160     3.7890     7.0270 hc         1 CBN       0.048700
     58 H123         2.9300     2.9750     6.3570 hc         1 CBN       0.048700
     59 H13          0.1920     1.5810     7.6690 h1         1 CBN       0.059700
     60 H21          0.4780    -0.9460     7.3520 h1         1 CBN       0.094700
     61 H22          2.1150    -0.9510     5.6050 h1         1 CBN       0.078700
     62 H23          0.0710     0.4620     3.8290 h2         1 CBN       0.051700
     63 H33          0.5510     2.7930     0.0380 ha         1 CBN       0.152000
     64 H35          0.8480     2.1660     2.3680 ha         1 CBN       0.157000
     65 H16         -0.6440    -1.3240    -7.0620 ha         1 CBN       0.158000
     66 H19          1.7260     2.5340    -9.0010 ha         1 CBN       0.134000
     67 H20          1.7960     2.1760    -6.6000 ha         1 CBN       0.125000
     68 H251        -0.4030    -1.4650   -10.6420 hc         1 CBN       0.056700
     69 H252        -1.0900    -2.1750    -9.2050 hc         1 CBN       0.056700
     70 H26         -2.2670     0.1040   -10.8990 ha         1 CBN       0.123000
     71 H301        -5.2530     0.2430    -9.2470 hc         1 CBN       0.039533
     72 H302        -4.5330     0.4690   -10.8440 hc         1 CBN       0.039533
     73 H303        -5.4380    -0.9990   -10.4660 hc         1 CBN       0.039533
     74 H341        -2.7920    -2.3930    -8.1100 hc         1 CBN       0.039533
     75 H342        -4.1670    -1.4180    -7.6080 hc         1 CBN       0.039533
     76 H343        -4.3960    -2.7040    -8.7720 hc         1 CBN       0.039533
     77 HN1          2.3890     1.0450    -4.9330 hn         1 CBN       0.320500
     78 H5           0.7070     2.5640    -3.4200 ho         1 CBN       0.457000
     79 H9           0.9650     1.7440   -11.0030 ho         1 CBN       0.428000
     80 H2          -4.4240    -2.4280     7.2020 ha         1 CBN       0.166000
     81 HN2         -3.0310     0.9160     5.0810 hn         1 CBN       0.300700
     82 H61         -5.4230     2.1840     4.6680 hc         1 CBN       0.049700
     83 H62         -5.4170     1.0350     3.3360 hc         1 CBN       0.049700
     84 H63         -6.7540     1.0440     4.4830 hc         1 CBN       0.049700
     85 H11          0.9980    -2.3630     4.1990 ho         1 CBN       0.427000
     86 H1          -6.5070    -1.2300     5.9600 ha         1 CBN       0.155000
@<TRIPOS>BOND
     1     1    32 1   
     2     1    50 1   
     3     1    51 1   
     4     1    52 1   
     5     2     8 1   
     6     2    53 1   
     7     2    54 1   
     8     2    55 1   
     9     3     8 1   
    10     3    56 1   
    11     3    57 1   
    12     3    58 1   
    13     4     5 1   
    14     4     8 1   
    15     4    32 1   
    16     4    59 1   
    17     5     6 1   
    18     5    33 1   
    19     5    60 1   
    20     6     7 1   
    21     6    49 1   
    22     6    61 1   
    23     7    34 1   
    24     7    35 1   
    25     7    62 1   
    26     8    34 1   
    27     9    11 1   
    28    10    11 ar  
    29    10    18 ar  
    30    10    35 1   
    31    11    12 ar  
    32    12    16 ar  
    33    12    37 1   
    34    13    14 1   
    35    13    37 1   
    36    13    38 2   
    37    14    15 2   
    38    14    31 1   
    39    15    16 1   
    40    15    36 1   
    41    16    17 ar  
    42    17    18 ar  
    43    17    63 1   
    44    18    64 1   
    45    19    20 1   
    46    19    31 1   
    47    19    39 2   
    48    20    21 ar  
    49    20    25 ar  
    50    21    22 ar  
    51    21    65 1   
    52    22    23 ar  
    53    22    26 1   
    54    23    24 ar  
    55    23    40 1   
    56    24    25 ar  
    57    24    66 1   
    58    25    67 1   
    59    26    27 1   
    60    26    68 1   
    61    26    69 1   
    62    27    28 2   
    63    27    70 1   
    64    28    29 1   
    65    28    30 1   
    66    29    71 1   
    67    29    72 1   
    68    29    73 1   
    69    30    74 1   
    70    30    75 1   
    71    30    76 1   
    72    31    77 1   
    73    33    47 1   
    74    36    78 1   
    75    40    79 1   
    76    41    42 1   
    77    41    45 2   
    78    41    86 1   
    79    42    43 2   
    80    42    80 1   
    81    43    44 1   
    82    43    47 1   
    83    44    45 1   
    84    44    81 1   
    85    45    46 1   
    86    46    82 1   
    87    46    83 1   
    88    46    84 1   
    89    47    48 2   
    90    49    85 1   
@<TRIPOS>SUBSTRUCTURE
     1 CBN         1 TEMP              0 ****  ****    0 ROOT
