@<TRIPOS>MOLECULE
CBN
   86    90     1     0     0
SMALL
No Charge or Current Charge


@<TRIPOS>ATOM
      1 C7           3.0870     0.7180     8.5650 c3         1 CBN       0.137900
      2 C8          -0.2210     2.6460     5.2690 c3         1 CBN      -0.099100
      3 C12          2.2190     3.1810     5.3540 c3         1 CBN      -0.099100
      4 C13          1.3440     1.2810     6.8890 c6         1 CBN       0.140300
      5 C21          0.5670    -0.0790     6.9110 c6         1 CBN       0.152300
      6 C22          0.9330    -0.9360     5.6570 c6         1 CBN       0.141300
      7 C23          0.6860    -0.0940     4.3670 c6         1 CBN       0.367300
      8 C24          1.1930     2.0180     5.5000 c6         1 CBN       0.209000
      9 Cl1          2.3000    -2.6060     1.1570 cl         1 CBN      -0.141000
     10 C27          0.8250    -0.4030     1.9240 ca         1 CBN       0.210100
     11 C28          1.3540    -1.1420     0.8470 ca         1 CBN       0.032000
     12 C4           1.1360    -0.7150    -0.4770 ca         1 CBN       0.229100
     13 C11          1.5590    -1.1130    -2.8380 c          1 CBN       0.695300
     14 C31          0.7210     0.0900    -3.1640 cc         1 CBN      -0.257600
     15 C9           0.1850     0.8310    -2.1360 cd         1 CBN       0.281900
     16 C32          0.3900     0.4420    -0.7420 ca         1 CBN      -0.193800
     17 C33         -0.1460     1.1800     0.3350 ca         1 CBN       0.003000
     18 C35          0.0690     0.7590     1.6580 ca         1 CBN      -0.210000
     19 C14          0.3270    -0.3160    -5.6290 c          1 CBN       0.618700
     20 C15          0.4930     0.3440    -6.9820 ca         1 CBN      -0.191600
     21 C16          0.1610    -0.3830    -8.1480 ca         1 CBN      -0.014000
     22 C17          0.3000     0.1860    -9.4300 ca         1 CBN      -0.112300
     23 C18          0.7740     1.5090    -9.5480 ca         1 CBN       0.169100
     24 C19          1.1130     2.2390    -8.4000 ca         1 CBN      -0.220000
     25 C20          0.9780     1.6660    -7.1250 ca         1 CBN      -0.043000
     26 C25         -0.0830    -0.6410   -10.6560 c3         1 CBN       0.019100
     27 C26         -1.5280    -0.4060   -11.0630 c2         1 CBN      -0.221200
     28 C29         -2.5970    -1.2000   -10.8520 c2         1 CBN      -0.108400
     29 C30         -3.9840    -0.8320   -11.3480 c3         1 CBN      -0.056900
     30 C34         -2.5910    -2.5300   -10.1120 c3         1 CBN      -0.056900
     31 N1           0.5600     0.4850    -4.5170 ns         1 CBN      -0.423100
     32 O1           2.7490     1.0820     7.2120 os         1 CBN      -0.442000
     33 O2          -0.8990     0.1430     7.0430 os         1 CBN      -0.471100
     34 O3           1.4850     1.1100     4.4090 os         1 CBN      -0.472000
     35 O4           1.0590    -0.8630     3.2090 os         1 CBN      -0.328100
     36 O5          -0.6050     1.8960    -2.3760 oh         1 CBN      -0.507100
     37 O6           1.6710    -1.4380    -1.5140 os         1 CBN      -0.322200
     38 O7           2.1590    -1.7690    -3.6790 o          1 CBN      -0.473000
     39 O8          -0.0140    -1.4860    -5.5210 o          1 CBN      -0.565100
     40 O9           0.9110     2.1000   -10.7710 oh         1 CBN      -0.525100
     41 C1          -5.4630    -0.2830     7.6920 cc         1 CBN      -0.196000
     42 C2          -4.2950    -0.9940     8.0210 cc         1 CBN      -0.084000
     43 C3          -3.2140    -0.3180     7.5190 cd         1 CBN      -0.249600
     44 N2          -3.7260     0.8210     6.8770 na         1 CBN      -0.075000
     45 C5          -5.1230     0.8380     6.9870 cd         1 CBN      -0.136300
     46 C6          -6.0040     1.9150     6.4130 c3         1 CBN      -0.033800
     47 C10         -1.7990    -0.7400     7.6510 c          1 CBN       0.651700
     48 O10         -1.4490    -1.7460     8.2490 o          1 CBN      -0.467000
     49 O11          0.2140    -2.1960     5.6230 oh         1 CBN      -0.704000
     50 H71          4.1770     0.7160     8.6940 h1         1 CBN       0.036700
     51 H72          2.6630     1.4350     9.2800 h1         1 CBN       0.036700
     52 H73          2.7220    -0.2850     8.8150 h1         1 CBN       0.036700
     53 H81         -1.0340     1.9150     5.2920 hc         1 CBN       0.048700
     54 H82         -0.4450     3.3950     6.0390 hc         1 CBN       0.048700
     55 H83         -0.2760     3.1540     4.2980 hc         1 CBN       0.048700
     56 H121         2.0850     3.7180     4.4070 hc         1 CBN       0.048700
     57 H122         2.1140     3.9080     6.1670 hc         1 CBN       0.048700
     58 H123         3.2520     2.8130     5.3690 hc         1 CBN       0.048700
     59 H13          0.9190     1.9360     7.6640 h1         1 CBN       0.059700
     60 H21          0.8840    -0.6360     7.8020 h1         1 CBN       0.094700
     61 H22          2.0140    -1.1360     5.7040 h1         1 CBN       0.078700
     62 H23         -0.3840     0.1500     4.3040 h2         1 CBN       0.051700
     63 H33         -0.7310     2.0810     0.1560 ha         1 CBN       0.134000
     64 H35         -0.3610     1.3520     2.4590 ha         1 CBN       0.139000
     65 H16         -0.2130    -1.4010    -8.0620 ha         1 CBN       0.140000
     66 H19          1.4840     3.2570    -8.4860 ha         1 CBN       0.116000
     67 H20          1.2620     2.2630    -6.2620 ha         1 CBN       0.107000
     68 H251         0.5740    -0.3980   -11.4990 hc         1 CBN       0.056700
     69 H252         0.1120    -1.7020   -10.4650 hc         1 CBN       0.056700
     70 H26         -1.6590     0.5320   -11.6040 ha         1 CBN       0.173000
     71 H301        -4.6910    -0.7430   -10.5150 hc         1 CBN       0.039533
     72 H302        -3.9860     0.1260   -11.8830 hc         1 CBN       0.039533
     73 H303        -4.3720    -1.5920   -12.0370 hc         1 CBN       0.039533
     74 H341        -1.6150    -2.7870    -9.6910 hc         1 CBN       0.039533
     75 H342        -3.3010    -2.5130    -9.2760 hc         1 CBN       0.039533
     76 H343        -2.8850    -3.3490   -10.7780 hc         1 CBN       0.039533
     77 HN1          0.6540     1.4680    -4.7470 hn         1 CBN       0.320500
     78 H5          -0.8930     1.8120    -3.3070 ho         1 CBN       0.496000
     79 H9           1.2500     3.0090   -10.6360 ho         1 CBN       0.467000
     80 H2          -4.2730    -1.9260     8.5810 ha         1 CBN       0.148000
     81 HN2         -3.1670     1.5280     6.4080 hn         1 CBN       0.351000
     82 H61         -5.7600     2.8940     6.8440 hc         1 CBN       0.049700
     83 H62         -5.8830     1.9860     5.3260 hc         1 CBN       0.049700
     84 H63         -7.0620     1.7140     6.6190 hc         1 CBN       0.049700
     85 H11          0.4670    -2.6460     4.7810 ho         1 CBN       0.526000
     86 H1          -6.4690    -0.5910     7.9650 ha         1 CBN       0.137000
@<TRIPOS>BOND
     1     1    32 1   
     2     1    50 1   
     3     1    51 1   
     4     1    52 1   
     5     2     8 1   
     6     2    53 1   
     7     2    54 1   
     8     2    55 1   
     9     3     8 1   
    10     3    56 1   
    11     3    57 1   
    12     3    58 1   
    13     4     5 1   
    14     4     8 1   
    15     4    32 1   
    16     4    59 1   
    17     5     6 1   
    18     5    33 1   
    19     5    60 1   
    20     6     7 1   
    21     6    49 1   
    22     6    61 1   
    23     7    34 1   
    24     7    35 1   
    25     7    62 1   
    26     8    34 1   
    27     9    11 1   
    28    10    11 ar  
    29    10    18 ar  
    30    10    35 1   
    31    11    12 ar  
    32    12    16 ar  
    33    12    37 1   
    34    13    14 1   
    35    13    37 1   
    36    13    38 2   
    37    14    15 2   
    38    14    31 1   
    39    15    16 1   
    40    15    36 1   
    41    16    17 ar  
    42    17    18 ar  
    43    17    63 1   
    44    18    64 1   
    45    19    20 1   
    46    19    31 1   
    47    19    39 2   
    48    20    21 ar  
    49    20    25 ar  
    50    21    22 ar  
    51    21    65 1   
    52    22    23 ar  
    53    22    26 1   
    54    23    24 ar  
    55    23    40 1   
    56    24    25 ar  
    57    24    66 1   
    58    25    67 1   
    59    26    27 1   
    60    26    68 1   
    61    26    69 1   
    62    27    28 2   
    63    27    70 1   
    64    28    29 1   
    65    28    30 1   
    66    29    71 1   
    67    29    72 1   
    68    29    73 1   
    69    30    74 1   
    70    30    75 1   
    71    30    76 1   
    72    31    77 1   
    73    33    47 1   
    74    36    78 1   
    75    40    79 1   
    76    41    42 1   
    77    41    45 2   
    78    41    86 1   
    79    42    43 2   
    80    42    80 1   
    81    43    44 1   
    82    43    47 1   
    83    44    45 1   
    84    44    81 1   
    85    45    46 1   
    86    46    82 1   
    87    46    83 1   
    88    46    84 1   
    89    47    48 2   
    90    49    85 1   
@<TRIPOS>SUBSTRUCTURE
     1 CBN         1 TEMP              0 ****  ****    0 ROOT
