@<TRIPOS>MOLECULE
CBP
   48    50     1     0     0
SMALL
bcc


@<TRIPOS>ATOM
      1 O1          -0.8080    -3.9880     3.6070 oh         1 CBP      -0.391100
      2 N2          -0.2810    -2.9080     2.9650 ns         1 CBP      -0.448400
      3 C3           0.2100    -1.8830     3.6940 c          1 CBP       0.675100
      4 O4           0.0530    -1.7840     4.8950 o          1 CBP      -0.544100
      5 C5           1.0140    -0.9090     2.8570 c3         1 CBP      -0.156400
      6 C6           0.6650     0.5830     2.9380 c6         1 CBP      -0.092200
      7 C7           0.6230     1.1760     4.3550 c6         1 CBP      -0.103900
      8 C8           2.0260     1.2610     4.9380 c6         1 CBP       0.138900
      9 O9           2.8850     2.0320     4.1300 os         1 CBP      -0.395600
     10 C10          3.0150     1.4960     2.8360 c6         1 CBP       0.138900
     11 C11          1.6750     1.3930     2.1150 c6         1 CBP      -0.103900
     12 S12         -1.0170     0.8290     2.2440 sy         1 CBP       1.053300
     13 O13         -1.9320    -0.0030     3.0260 o          1 CBP      -0.581800
     14 O14         -1.2700     2.2690     2.1710 o          1 CBP      -0.581800
     15 C15         -0.9940     0.2080     0.5890 ca         1 CBP      -0.305500
     16 C16         -1.5060    -1.0580     0.3200 ca         1 CBP      -0.001500
     17 C17         -1.5210    -1.5280    -0.9780 ca         1 CBP      -0.206000
     18 C18         -1.0290    -0.7320    -2.0110 ca         1 CBP       0.193100
     19 C19         -0.5310     0.5410    -1.7450 ca         1 CBP      -0.206000
     20 C20         -0.5240     1.0100    -0.4430 ca         1 CBP      -0.001500
     21 O21         -1.0740    -1.2720    -3.2490 os         1 CBP      -0.244200
     22 C22         -0.7240    -0.5030    -4.3330 ca         1 CBP       0.085100
     23 C23          0.5550    -0.6100    -4.8540 ca         1 CBP      -0.124000
     24 C24          0.9000     0.1310    -5.9750 ca         1 CBP      -0.111000
     25 C25         -0.0400     0.9720    -6.5500 ca         1 CBP       0.029400
     26 C26         -1.3210     1.0800    -6.0290 ca         1 CBP      -0.111000
     27 C27         -1.6640     0.3360    -4.9110 ca         1 CBP      -0.124000
     28 CL28         0.3890     1.9010    -7.9470 cl         1 CBP      -0.095400
     29 HO1I        -1.7670    -3.8890     3.5520 ho         1 CBP       0.416000
     30 HN21         0.0590    -3.1080     2.0350 hn         1 CBP       0.325500
     31 HC51         2.0500    -1.0320     3.1860 hc         1 CBP       0.068700
     32 HC52         1.0220    -1.2100     1.8060 hc         1 CBP       0.068700
     33 HC71         0.2120     2.1870     4.3060 hc         1 CBP       0.074200
     34 HC72        -0.0070     0.5930     5.0210 hc         1 CBP       0.074200
     35 HC81         1.9770     1.7490     5.9120 h1         1 CBP       0.049450
     36 HC82         2.4380     0.2560     5.1010 h1         1 CBP       0.049450
     37 H101         3.6690     2.1630     2.2740 h1         1 CBP       0.049450
     38 H102         3.5130     0.5170     2.8720 h1         1 CBP       0.049450
     39 H111         1.8430     0.9420     1.1350 hc         1 CBP       0.074200
     40 H112         1.2920     2.4030     1.9530 hc         1 CBP       0.074200
     41 H161        -1.9100    -1.6710     1.1120 ha         1 CBP       0.157500
     42 H171        -1.9220    -2.5090    -1.1990 ha         1 CBP       0.154000
     43 H191        -0.1570     1.1780    -2.5340 ha         1 CBP       0.154000
     44 H201        -0.1540     2.0080    -0.2510 ha         1 CBP       0.157500
     45 H231         1.2800    -1.2690    -4.3960 ha         1 CBP       0.153500
     46 H241         1.8960     0.0520    -6.3880 ha         1 CBP       0.155000
     47 H261        -2.0480     1.7370    -6.4850 ha         1 CBP       0.155000
     48 H271        -2.6630     0.4090    -4.5000 ha         1 CBP       0.153500
@<TRIPOS>BOND
     1     1     2 1   
     2     1    29 1   
     3     2     3 1   
     4     2    30 1   
     5     3     4 2   
     6     3     5 1   
     7     5     6 1   
     8     5    31 1   
     9     5    32 1   
    10     6     7 1   
    11     6    11 1   
    12     6    12 1   
    13     7     8 1   
    14     7    33 1   
    15     7    34 1   
    16     8     9 1   
    17     8    35 1   
    18     8    36 1   
    19     9    10 1   
    20    10    11 1   
    21    10    37 1   
    22    10    38 1   
    23    11    39 1   
    24    11    40 1   
    25    12    13 2   
    26    12    14 2   
    27    12    15 1   
    28    15    16 ar  
    29    15    20 ar  
    30    16    17 ar  
    31    16    41 1   
    32    17    18 ar  
    33    17    42 1   
    34    18    19 ar  
    35    18    21 1   
    36    19    20 ar  
    37    19    43 1   
    38    20    44 1   
    39    21    22 1   
    40    22    23 ar  
    41    22    27 ar  
    42    23    24 ar  
    43    23    45 1   
    44    24    25 ar  
    45    24    46 1   
    46    25    26 ar  
    47    25    28 1   
    48    26    27 ar  
    49    26    47 1   
    50    27    48 1   
@<TRIPOS>SUBSTRUCTURE
     1 CBP         1 TEMP              0 ****  ****    0 ROOT
