@<TRIPOS>MOLECULE
CBP
   48    50     1     0     0
SMALL
No Charge or Current Charge


@<TRIPOS>ATOM
      1 O1          -1.1100    -4.0300     3.6080 oh         1 CBP      -0.430100
      2 N2          -0.4870    -2.8620     3.0170 ns         1 CBP      -0.381400
      3 C3           0.0970    -1.8830     3.8140 c          1 CBP       0.608100
      4 O4          -0.0510    -1.8600     5.0290 o          1 CBP      -0.544100
      5 C5           1.0110    -0.8880     3.0650 c3         1 CBP      -0.156400
      6 C6           0.5930     0.6480     3.0500 c6         1 CBP      -0.203000
      7 C7           0.4760     1.2480     4.4990 c6         1 CBP      -0.103900
      8 C8           1.8450     1.3320     5.2180 c6         1 CBP       0.162100
      9 O9           2.7550     2.1270     4.4300 os         1 CBP      -0.442000
     10 C10          3.0250     1.5820     3.1210 c6         1 CBP       0.162100
     11 C11          1.7090     1.4730     2.3040 c6         1 CBP      -0.103900
     12 S12         -1.0570     0.8810     2.1900 sy         1 CBP       1.022500
     13 O13         -2.0440     0.0420     2.8800 o          1 CBP      -0.511000
     14 O14         -1.2780     2.3280     2.0570 o          1 CBP      -0.511000
     15 C15         -0.8190     0.2170     0.5260 ca         1 CBP      -0.305500
     16 C16         -1.3140    -1.0610     0.1920 ca         1 CBP       0.016500
     17 C17         -1.1260    -1.5680    -1.1050 ca         1 CBP      -0.188000
     18 C18         -0.4670    -0.8010    -2.0760 ca         1 CBP       0.193100
     19 C19          0.0180     0.4780    -1.7490 ca         1 CBP      -0.188000
     20 C20         -0.1660     0.9920    -0.4550 ca         1 CBP       0.016500
     21 O21         -0.2890    -1.3300    -3.3340 os         1 CBP      -0.244200
     22 C22         -0.3910    -0.5770    -4.4820 ca         1 CBP       0.085100
     23 C23          0.4810    -0.8480    -5.5510 ca         1 CBP      -0.106000
     24 C24          0.3900    -0.1030    -6.7410 ca         1 CBP      -0.093000
     25 C25         -0.5790     0.9080    -6.8630 ca         1 CBP       0.121000
     26 C26         -1.4610     1.1720    -5.8020 ca         1 CBP      -0.093000
     27 C27         -1.3720     0.4270    -4.6110 ca         1 CBP      -0.106000
     28 Cl28        -0.6930     1.8380    -8.3510 cl         1 CBP      -0.187000
     29 HO1I        -1.9900    -4.0760     3.1640 ho         1 CBP       0.455000
     30 HN21        -0.1780    -2.9640     2.0520 hn         1 CBP       0.325500
     31 HC51         1.9970    -0.9980     3.5270 hc         1 CBP       0.068700
     32 HC52         1.1140    -1.2310     2.0280 hc         1 CBP       0.068700
     33 HC71         0.0650     2.2670     4.4490 hc         1 CBP       0.074200
     34 HC72        -0.2350     0.6820     5.1140 hc         1 CBP       0.074200
     35 HC81         1.7210     1.8060     6.2020 h1         1 CBP       0.049450
     36 HC82         2.2700     0.3300     5.3770 h1         1 CBP       0.049450
     37 H101         3.7300     2.2450     2.6000 h1         1 CBP       0.049450
     38 H102         3.5080     0.6000     3.2260 h1         1 CBP       0.049450
     39 H111         1.9370     1.0230     1.3290 hc         1 CBP       0.074200
     40 H112         1.3580     2.4930     2.0970 hc         1 CBP       0.074200
     41 H161        -1.8520    -1.6610     0.9230 ha         1 CBP       0.139500
     42 H171        -1.5020    -2.5550    -1.3620 ha         1 CBP       0.136000
     43 H191         0.5380     1.0730    -2.4940 ha         1 CBP       0.136000
     44 H201         0.2020     1.9900    -0.2210 ha         1 CBP       0.139500
     45 H231         1.2290    -1.6310    -5.4550 ha         1 CBP       0.135500
     46 H241         1.0670    -0.3070    -7.5670 ha         1 CBP       0.137000
     47 H261        -2.2140     1.9500    -5.9040 ha         1 CBP       0.137000
     48 H271        -2.0640     0.6290    -3.7970 ha         1 CBP       0.135500
@<TRIPOS>BOND
     1     1     2 1   
     2     1    29 1   
     3     2     3 1   
     4     2    30 1   
     5     3     4 2   
     6     3     5 1   
     7     5     6 1   
     8     5    31 1   
     9     5    32 1   
    10     6     7 1   
    11     6    11 1   
    12     6    12 1   
    13     7     8 1   
    14     7    33 1   
    15     7    34 1   
    16     8     9 1   
    17     8    35 1   
    18     8    36 1   
    19     9    10 1   
    20    10    11 1   
    21    10    37 1   
    22    10    38 1   
    23    11    39 1   
    24    11    40 1   
    25    12    13 2   
    26    12    14 2   
    27    12    15 1   
    28    15    16 ar  
    29    15    20 ar  
    30    16    17 ar  
    31    16    41 1   
    32    17    18 ar  
    33    17    42 1   
    34    18    19 ar  
    35    18    21 1   
    36    19    20 ar  
    37    19    43 1   
    38    20    44 1   
    39    21    22 1   
    40    22    23 ar  
    41    22    27 ar  
    42    23    24 ar  
    43    23    45 1   
    44    24    25 ar  
    45    24    46 1   
    46    25    26 ar  
    47    25    28 1   
    48    26    27 ar  
    49    26    47 1   
    50    27    48 1   
@<TRIPOS>SUBSTRUCTURE
     1 CBP         1 TEMP              0 ****  ****    0 ROOT
