@<TRIPOS>MOLECULE
CBS
   57    58     1     0     0
SMALL
No Charge or Current Charge


@<TRIPOS>ATOM
      1 C1A         -0.2340     0.1100    -1.6010 c6         1 CBS       0.385300
      2 C2A          0.2180    -0.5580    -2.9390 c6         1 CBS       0.083700
      3 C3A         -0.4180     0.2440    -4.1130 c6         1 CBS       0.166300
      4 C4A         -1.9660     0.3420    -3.9610 c6         1 CBS       0.096300
      5 C5A         -2.2960     0.9520    -2.5620 c6         1 CBS       0.151300
      6 C6A         -3.8320     1.0180    -2.2670 c3         1 CBS       0.173600
      7 C8A          3.9980    -1.3930    -2.8590 c3         1 CBS      -0.184100
      8 N2A          1.6970    -0.6080    -3.0740 ns         1 CBS      -0.500900
      9 O1A          0.2520    -0.6360    -0.4690 os         1 CBS      -0.423000
     10 O3A         -0.1000    -0.3420    -5.3840 oh         1 CBS      -0.642000
     11 O4A         -2.5120     1.1270    -5.0470 oh         1 CBS      -0.725000
     12 O5A         -1.6710     0.1460    -1.5330 os         1 CBS      -0.444000
     13 O6A         -4.1370     1.5380    -0.9580 oh         1 CBS      -0.700000
     14 O7A          2.0770    -2.6340    -2.0980 o          1 CBS      -0.586100
     15 C1B          1.3260     0.4670     3.5060 c6         1 CBS       0.387300
     16 C2B         -0.0490    -0.2540     3.3510 c6         1 CBS       0.034700
     17 C3B         -0.0820    -0.9590     1.9640 c6         1 CBS       0.158300
     18 C4B          0.2370     0.0510     0.8110 c6         1 CBS       0.151300
     19 C5B          1.5940     0.7670     1.1240 c6         1 CBS       0.160300
     20 C6B          2.0030     1.8680     0.0900 c3         1 CBS       0.168600
     21 C8B         -1.0360    -2.0780     6.6230 c3         1 CBS      -0.182100
     22 N2B         -0.3090    -1.2230     4.4520 ns         1 CBS      -0.510900
     23 O3B         -1.3540    -1.6080     1.7700 oh         1 CBS      -0.681000
     24 O5B          1.5220     1.3880     2.4340 os         1 CBS      -0.474000
     25 O6B          3.1990     2.5820     0.4610 oh         1 CBS      -0.711000
     26 O7B         -1.6770     0.0720     5.7400 o          1 CBS      -0.582100
     27 H1A          0.1510     1.1380    -1.5680 h2         1 CBS       0.012700
     28 H2A         -0.1770    -1.5840    -2.9570 h1         1 CBS       0.120700
     29 H3A         -0.0140     1.2670    -4.0790 h1         1 CBS       0.034700
     30 H4A         -2.3760    -0.6800    -3.9920 h1         1 CBS       0.063700
     31 H5A         -1.8940     1.9750    -2.5050 h1         1 CBS       0.057700
     32 H61A        -4.3050     1.6480    -3.0330 h1         1 CBS       0.025200
     33 H62A        -4.2460     0.0060    -2.3740 h1         1 CBS       0.025200
     34 H81A         4.6140    -2.2250    -2.5000 hc         1 CBS       0.061033
     35 H82A         4.1670    -1.1940    -3.9240 hc         1 CBS       0.061033
     36 H83A         4.2880    -0.4440    -2.3950 hc         1 CBS       0.061033
     37 HN2A         2.1600     0.1610    -3.5450 hn         1 CBS       0.304500
     38 HO3A        -0.7360     0.0720    -6.0120 ho         1 CBS       0.458000
     39 HO4A        -3.4560     0.8650    -5.1670 ho         1 CBS       0.514000
     40 HO6A        -5.1120     1.4600    -0.8380 ho         1 CBS       0.506000
     41 H1B          2.1460    -0.2660     3.5200 h2         1 CBS       0.013700
     42 H2B         -0.8310     0.5190     3.3640 h1         1 CBS       0.122700
     43 H3B          0.7110    -1.7210     1.9610 h1         1 CBS       0.036700
     44 H4B         -0.5640     0.8060     0.8000 h1         1 CBS       0.079700
     45 H5B          2.3960     0.0140     1.1380 h1         1 CBS       0.062700
     46 H61B         2.1590     1.3840    -0.8830 h1         1 CBS       0.029700
     47 H62B         1.1640     2.5680    -0.0170 h1         1 CBS       0.029700
     48 H81B        -1.6460    -1.8420     7.5020 hc         1 CBS       0.060367
     49 H82B        -1.3550    -3.0120     6.1470 hc         1 CBS       0.060367
     50 H83B         0.0020    -2.2980     6.8970 hc         1 CBS       0.060367
     51 HN2B         0.1960    -2.1030     4.4480 hn         1 CBS       0.305500
     52 HO3B        -1.5770    -2.0440     2.6240 ho         1 CBS       0.507000
     53 HO6B         3.3100     3.3170    -0.1860 ho         1 CBS       0.503000
     54 O1B          1.3730     1.2630     4.6700 oh         1 CBS      -0.624000
     55 C7A          2.5110    -1.6230    -2.6280 c          1 CBS       0.613100
     56 C7B         -1.0480    -0.9630     5.5860 c          1 CBS       0.608100
     57 HO1B         1.7840     2.0940     4.3520 ho         1 CBS       0.458000
@<TRIPOS>BOND
     1     1     2 1   
     2     1     9 1   
     3     1    12 1   
     4     1    27 1   
     5     2     3 1   
     6     2     8 1   
     7     2    28 1   
     8     3     4 1   
     9     3    10 1   
    10     3    29 1   
    11     4     5 1   
    12     4    11 1   
    13     4    30 1   
    14     5     6 1   
    15     5    12 1   
    16     5    31 1   
    17     6    13 1   
    18     6    32 1   
    19     6    33 1   
    20     7    34 1   
    21     7    35 1   
    22     7    36 1   
    23     7    55 1   
    24     8    37 1   
    25     8    55 1   
    26     9    18 1   
    27    10    38 1   
    28    11    39 1   
    29    13    40 1   
    30    14    55 2   
    31    15    16 1   
    32    15    24 1   
    33    15    41 1   
    34    15    54 1   
    35    16    17 1   
    36    16    22 1   
    37    16    42 1   
    38    17    18 1   
    39    17    23 1   
    40    17    43 1   
    41    18    19 1   
    42    18    44 1   
    43    19    20 1   
    44    19    24 1   
    45    19    45 1   
    46    20    25 1   
    47    20    46 1   
    48    20    47 1   
    49    21    48 1   
    50    21    49 1   
    51    21    50 1   
    52    21    56 1   
    53    22    51 1   
    54    22    56 1   
    55    23    52 1   
    56    25    53 1   
    57    26    56 2   
    58    54    57 1   
@<TRIPOS>SUBSTRUCTURE
     1 CBS         1 TEMP              0 ****  ****    0 ROOT
