@<TRIPOS>MOLECULE
CBS
   57    58     1     0     0
SMALL
bcc


@<TRIPOS>ATOM
      1 C1A         -0.3180     0.1950    -1.5330 c6         1 CBS       0.338900
      2 C2A          0.1620    -0.4530    -2.8380 c6         1 CBS       0.083700
      3 C3A         -0.6240     0.1160    -4.0120 c6         1 CBS       0.143100
      4 C4A         -2.1240     0.0440    -3.7440 c6         1 CBS       0.073100
      5 C5A         -2.4400     0.6960    -2.3940 c6         1 CBS       0.128100
      6 C6A         -3.9070     0.5970    -2.0390 c3         1 CBS       0.150400
      7 C8A          3.9410    -0.5990    -2.7930 c3         1 CBS      -0.184100
      8 N2A          1.5730    -0.2370    -3.0240 ns         1 CBS      -0.567900
      9 O1A          0.3150    -0.4430    -0.4880 os         1 CBS      -0.376600
     10 O3A         -0.2640    -0.5970    -5.1650 oh         1 CBS      -0.579800
     11 O4A         -2.7590     0.7060    -4.8150 oh         1 CBS      -0.602800
     12 O5A         -1.6990     0.0400    -1.3860 os         1 CBS      -0.397600
     13 O6A         -4.1480     1.3380    -0.8690 oh         1 CBS      -0.577800
     14 O7A          2.2900    -2.2730    -2.3440 o          1 CBS      -0.586100
     15 C1B          1.5440     0.2520     3.3970 c6         1 CBS       0.340900
     16 C2B          0.0710    -0.1060     3.2240 c6         1 CBS       0.034700
     17 C3B         -0.1640    -0.7070     1.8330 c6         1 CBS       0.135100
     18 C4B          0.3710     0.2280     0.7550 c6         1 CBS       0.128100
     19 C5B          1.8320     0.5800     1.0750 c6         1 CBS       0.137100
     20 C6B          2.4230     1.5850     0.1100 c3         1 CBS       0.145400
     21 C8B         -1.4490    -1.7800     6.2630 c3         1 CBS      -0.182100
     22 N2B         -0.3750    -1.0230     4.2410 ns         1 CBS      -0.577900
     23 O3B         -1.5230    -0.9420     1.6030 oh         1 CBS      -0.558800
     24 O5B          1.9200     1.1360     2.3690 os         1 CBS      -0.427600
     25 O6B          3.8110     1.6600     0.3360 oh         1 CBS      -0.588800
     26 O7B         -1.7470     0.4040     5.3400 o          1 CBS      -0.582100
     27 H1A         -0.0700     1.2730    -1.5540 h2         1 CBS       0.012700
     28 H2A         -0.0180    -1.5300    -2.7710 h1         1 CBS       0.120700
     29 H3A         -0.3630     1.1850    -4.1170 h1         1 CBS       0.034700
     30 H4A         -2.4210    -1.0140    -3.7000 h1         1 CBS       0.063700
     31 H5A         -2.1560     1.7600    -2.4460 h1         1 CBS       0.057700
     32 H61A        -4.4930     0.9800    -2.8830 h1         1 CBS       0.025200
     33 H62A        -4.1730    -0.4630    -1.9180 h1         1 CBS       0.025200
     34 H81A         4.6200    -1.3880    -3.1090 hc         1 CBS       0.061033
     35 H82A         4.0370     0.2460    -3.4740 hc         1 CBS       0.061033
     36 H83A         4.2580    -0.2650    -1.8030 hc         1 CBS       0.061033
     37 HN2A         1.8630     0.6810    -3.3250 hn         1 CBS       0.304500
     38 HO3A        -0.7650    -0.2350    -5.9030 ho         1 CBS       0.419000
     39 HO4A        -3.6240     0.3130    -4.9640 ho         1 CBS       0.415000
     40 HO6A        -5.0850     1.2720    -0.6650 ho         1 CBS       0.407000
     41 H1B          2.1590    -0.6630     3.3280 h2         1 CBS       0.013700
     42 H2B         -0.5180     0.8090     3.3160 h1         1 CBS       0.122700
     43 H3B          0.4140    -1.6450     1.7660 h1         1 CBS       0.036700
     44 H4B         -0.2360     1.1430     0.7430 h1         1 CBS       0.079700
     45 H5B          2.4220    -0.3510     1.0190 h1         1 CBS       0.062700
     46 H61B         2.2080     1.2660    -0.9140 h1         1 CBS       0.029700
     47 H62B         1.9310     2.5560     0.2580 h1         1 CBS       0.029700
     48 H81B        -2.5180    -1.8880     6.4410 hc         1 CBS       0.060367
     49 H82B        -1.0440    -2.7460     5.9690 hc         1 CBS       0.060367
     50 H83B        -0.9900    -1.4900     7.2090 hc         1 CBS       0.060367
     51 HN2B         0.0590    -1.9330     4.2710 hn         1 CBS       0.305500
     52 HO3B        -1.8220    -1.5870     2.2520 ho         1 CBS       0.408000
     53 HO6B         4.1760     2.3160    -0.2650 ho         1 CBS       0.404000
     54 O1B          1.7150     0.8850     4.6050 oh         1 CBS      -0.561800
     55 C7A          2.5320    -1.1310    -2.7020 c          1 CBS       0.680100
     56 C7B         -1.2120    -0.6900     5.2470 c          1 CBS       0.675100
     57 HO1B         2.6450     0.8560     4.8520 ho         1 CBS       0.419000
@<TRIPOS>BOND
     1     1     2 1   
     2     1     9 1   
     3     1    12 1   
     4     1    27 1   
     5     2     3 1   
     6     2     8 1   
     7     2    28 1   
     8     3     4 1   
     9     3    10 1   
    10     3    29 1   
    11     4     5 1   
    12     4    11 1   
    13     4    30 1   
    14     5     6 1   
    15     5    12 1   
    16     5    31 1   
    17     6    13 1   
    18     6    32 1   
    19     6    33 1   
    20     7    34 1   
    21     7    35 1   
    22     7    36 1   
    23     7    55 1   
    24     8    37 1   
    25     8    55 1   
    26     9    18 1   
    27    10    38 1   
    28    11    39 1   
    29    13    40 1   
    30    14    55 2   
    31    15    16 1   
    32    15    24 1   
    33    15    41 1   
    34    15    54 1   
    35    16    17 1   
    36    16    22 1   
    37    16    42 1   
    38    17    18 1   
    39    17    23 1   
    40    17    43 1   
    41    18    19 1   
    42    18    44 1   
    43    19    20 1   
    44    19    24 1   
    45    19    45 1   
    46    20    25 1   
    47    20    46 1   
    48    20    47 1   
    49    21    48 1   
    50    21    49 1   
    51    21    50 1   
    52    21    56 1   
    53    22    51 1   
    54    22    56 1   
    55    23    52 1   
    56    25    53 1   
    57    26    56 2   
    58    54    57 1   
@<TRIPOS>SUBSTRUCTURE
     1 CBS         1 TEMP              0 ****  ****    0 ROOT
