@<TRIPOS>MOLECULE
CBT
   35    37     1     0     0
SMALL
No Charge or Current Charge


@<TRIPOS>ATOM
      1 Cl3         -2.2920     0.3320    -5.9270 cl         1 CBT      -0.203500
      2 C29         -1.5620    -0.0760    -4.3800 ca         1 CBT       0.125000
      3 C28         -0.1750    -0.2800    -4.2920 ca         1 CBT      -0.106250
      4 C26          0.4090    -0.6060    -3.0550 ca         1 CBT      -0.087500
      5 C27         -2.3650    -0.1990    -3.2360 ca         1 CBT      -0.106250
      6 C25         -1.7820    -0.5250    -1.9980 ca         1 CBT      -0.087500
      7 C22         -0.3900    -0.7300    -1.9010 ca         1 CBT      -0.111800
      8 C17          0.2460    -1.0770    -0.5590 c3         1 CBT       0.280100
      9 N13          1.0270     0.0430     0.0210 nh         1 CBT      -0.782300
     10 C16          2.4060     0.0730     0.0250 cc         1 CBT       0.773900
     11 N18          3.1300     1.0130     0.5730 nd         1 CBT      -0.603800
     12 N20          4.3780     0.5230     0.2700 na         1 CBT       0.114600
     13 N21          4.3490    -0.6590    -0.4300 nd         1 CBT      -0.153800
     14 N19          3.0850    -0.9380    -0.5800 nc         1 CBT      -0.446000
     15 C1           0.2340     1.1460     0.6060 c3         1 CBT       0.280100
     16 C2          -0.4130     0.7780     1.9370 ca         1 CBT      -0.111800
     17 C3           0.3840     0.5950     3.0850 ca         1 CBT      -0.087500
     18 C5          -0.2090     0.2490     4.3130 ca         1 CBT      -0.106250
     19 C7          -1.6000     0.0850     4.3980 ca         1 CBT       0.125000
     20 Cl8         -2.3410    -0.3490     5.9330 cl         1 CBT      -0.203500
     21 C6          -2.4020     0.2660     3.2590 ca         1 CBT      -0.106250
     22 C4          -1.8110     0.6120     2.0310 ca         1 CBT      -0.087500
     23 H28          0.4450    -0.1840    -5.1790 ha         1 CBT       0.130500
     24 H26          1.4850    -0.7590    -2.9930 ha         1 CBT       0.122000
     25 H27         -3.4390    -0.0410    -3.3080 ha         1 CBT       0.130500
     26 H25         -2.4140    -0.6170    -1.1170 ha         1 CBT       0.122000
     27 H171        -0.5490    -1.3650     0.1430 h1         1 CBT       0.069700
     28 H172         0.8560    -1.9820    -0.6860 h1         1 CBT       0.069700
     29 H20          5.2530     0.9820     0.5310 hn         1 CBT       0.405000
     30 H11          0.8470     2.0450     0.7570 h1         1 CBT       0.069700
     31 H12         -0.5520     1.4450    -0.1010 h1         1 CBT       0.069700
     32 H3           1.4630     0.7180     3.0240 ha         1 CBT       0.122000
     33 H5           0.4100     0.1080     5.1960 ha         1 CBT       0.130500
     34 H6          -3.4790     0.1380     3.3290 ha         1 CBT       0.130500
     35 H4          -2.4400     0.7490     1.1540 ha         1 CBT       0.122000
@<TRIPOS>BOND
     1     1     2 1   
     2     2     3 ar  
     3     2     5 ar  
     4     3     4 ar  
     5     3    23 1   
     6     4     7 ar  
     7     4    24 1   
     8     5     6 ar  
     9     5    25 1   
    10     6     7 ar  
    11     6    26 1   
    12     7     8 1   
    13     8     9 1   
    14     8    27 1   
    15     8    28 1   
    16     9    10 1   
    17     9    15 1   
    18    10    11 2   
    19    10    14 1   
    20    11    12 1   
    21    12    13 1   
    22    12    29 1   
    23    13    14 2   
    24    15    16 1   
    25    15    30 1   
    26    15    31 1   
    27    16    17 ar  
    28    16    22 ar  
    29    17    18 ar  
    30    17    32 1   
    31    18    19 ar  
    32    18    33 1   
    33    19    20 1   
    34    19    21 ar  
    35    21    22 ar  
    36    21    34 1   
    37    22    35 1   
@<TRIPOS>SUBSTRUCTURE
     1 CBT         1 TEMP              0 ****  ****    0 ROOT
