@<TRIPOS>MOLECULE
CBT
   35    37     1     0     0
SMALL
abcg2


@<TRIPOS>ATOM
      1 CL3         -2.4400     0.3430    -5.6650 cl         1 CBT      -0.203500
      2 C29         -1.6470    -0.0840    -4.1830 ca         1 CBT       0.125000
      3 C28         -0.2590    -0.1040    -4.1350 ca         1 CBT      -0.106250
      4 C26          0.3690    -0.4440    -2.9490 ca         1 CBT      -0.087500
      5 C27         -2.4070    -0.3970    -3.0700 ca         1 CBT      -0.106250
      6 C25         -1.7580    -0.7340    -1.8890 ca         1 CBT      -0.087500
      7 C22         -0.3710    -0.7650    -1.8120 ca         1 CBT      -0.111800
      8 C17          0.3200    -1.1090    -0.5170 c3         1 CBT       0.280100
      9 N13          1.0680     0.0040     0.0240 nh         1 CBT      -0.782300
     10 C16          2.4200     0.0160     0.0070 cc         1 CBT       0.773900
     11 N18          3.1730     0.9450     0.5770 nd         1 CBT      -0.603800
     12 N20          4.3810     0.5130     0.2770 na         1 CBT       0.114600
     13 N21          4.4100    -0.5780    -0.4040 nd         1 CBT      -0.153800
     14 N19          3.1750    -0.9270    -0.5990 nc         1 CBT      -0.446000
     15 C1           0.3160     1.1210     0.5490 c3         1 CBT       0.280100
     16 C2          -0.3860     0.7880     1.8410 ca         1 CBT      -0.111800
     17 C3           0.3450     0.4600     2.9810 ca         1 CBT      -0.087500
     18 C5          -0.2910     0.1390     4.1680 ca         1 CBT      -0.106250
     19 C7          -1.6790     0.1450     4.2130 ca         1 CBT       0.125000
     20 CL8         -2.4840    -0.2550     5.6960 cl         1 CBT      -0.203500
     21 C6          -2.4300     0.4630     3.0950 ca         1 CBT      -0.106250
     22 C4          -1.7730     0.7810     1.9130 ca         1 CBT      -0.087500
     23 H28          0.3220     0.1450    -5.0120 ha         1 CBT       0.130500
     24 H26          1.4510    -0.4620    -2.9140 ha         1 CBT       0.122000
     25 H27         -3.4870    -0.3740    -3.1130 ha         1 CBT       0.130500
     26 H25         -2.3480    -0.9710    -1.0110 ha         1 CBT       0.122000
     27 H171        -0.4250    -1.4300     0.2170 h1         1 CBT       0.069700
     28 H172         0.9950    -1.9520    -0.6610 h1         1 CBT       0.069700
     29 H20          5.2210     1.0020     0.5530 hn         1 CBT       0.405000
     30 H11          0.9900     1.9650     0.6920 h1         1 CBT       0.069700
     31 H12         -0.4230     1.4390    -0.1930 h1         1 CBT       0.069700
     32 H3           1.4280     0.4580     2.9500 ha         1 CBT       0.122000
     33 H5           0.2850    -0.1110     5.0480 ha         1 CBT       0.130500
     34 H6          -3.5110     0.4590     3.1360 ha         1 CBT       0.130500
     35 H4          -2.3560     1.0220     1.0320 ha         1 CBT       0.122000
@<TRIPOS>BOND
     1     1     2 1   
     2     2     3 ar  
     3     2     5 ar  
     4     3     4 ar  
     5     3    23 1   
     6     4     7 ar  
     7     4    24 1   
     8     5     6 ar  
     9     5    25 1   
    10     6     7 ar  
    11     6    26 1   
    12     7     8 1   
    13     8     9 1   
    14     8    27 1   
    15     8    28 1   
    16     9    10 1   
    17     9    15 1   
    18    10    11 2   
    19    10    14 1   
    20    11    12 1   
    21    12    13 1   
    22    12    29 1   
    23    13    14 2   
    24    15    16 1   
    25    15    30 1   
    26    15    31 1   
    27    16    17 ar  
    28    16    22 ar  
    29    17    18 ar  
    30    17    32 1   
    31    18    19 ar  
    32    18    33 1   
    33    19    20 1   
    34    19    21 ar  
    35    21    22 ar  
    36    21    34 1   
    37    22    35 1   
@<TRIPOS>SUBSTRUCTURE
     1 CBT         1 TEMP              0 ****  ****    0 ROOT
