@<TRIPOS>MOLECULE
CBU
   24    24     1     0     0
SMALL
abcg2


@<TRIPOS>ATOM
      1 C1           0.7030    -1.0800    -0.1480 c6         1 CBU       0.143300
      2 C2          -0.7840    -1.0400     0.1630 c6         1 CBU       0.143300
      3 C3          -1.4030     0.2350    -0.4090 c6         1 CBU       0.143300
      4 C4          -0.7340     1.4920     0.1420 c6         1 CBU       0.143300
      5 C5           0.7700     1.4580    -0.1390 c6         1 CBU       0.143300
      6 C6           1.3930     0.1680     0.3960 c6         1 CBU       0.143300
      7 O1           1.2450    -2.2450     0.4280 oh         1 CBU      -0.710833
      8 O2          -1.3820    -2.1810    -0.4040 oh         1 CBU      -0.710833
      9 O3          -2.7810     0.1950    -0.1120 oh         1 CBU      -0.710833
     10 O4          -0.9780     1.5520     1.5270 oh         1 CBU      -0.710833
     11 O6           2.7550     0.0790     0.0170 oh         1 CBU      -0.710833
     12 OXT          0.9570     1.5850    -1.5300 oh         1 CBU      -0.710833
     13 H1           0.8240    -1.1010    -1.2430 h1         1 CBU       0.055200
     14 H2          -0.9120    -1.0400     1.2570 h1         1 CBU       0.055200
     15 H6           1.2940     0.1660     1.4880 h1         1 CBU       0.055200
     16 HA           2.1970    -2.2240     0.2840 ho         1 CBU       0.512167
     17 H3          -1.2450     0.2260    -1.4940 h1         1 CBU       0.055200
     18 HB          -2.3360    -2.0820    -0.3050 ho         1 CBU       0.512167
     19 H4          -1.1620     2.3660    -0.3710 h1         1 CBU       0.055200
     20 HC          -3.2540     0.7230    -0.7620 ho         1 CBU       0.512167
     21 H5           1.2370     2.3070     0.3880 h1         1 CBU       0.055200
     22 HD          -0.6510     2.3940     1.8570 ho         1 CBU       0.512167
     23 HOT          1.8840     1.3950    -1.7160 ho         1 CBU       0.512167
     24 HE           3.2810     0.6140     0.6190 ho         1 CBU       0.512167
@<TRIPOS>BOND
     1     1     2 1   
     2     1     6 1   
     3     1     7 1   
     4     1    13 1   
     5     2     3 1   
     6     2     8 1   
     7     2    14 1   
     8     3     4 1   
     9     3     9 1   
    10     3    17 1   
    11     4     5 1   
    12     4    10 1   
    13     4    19 1   
    14     5     6 1   
    15     5    12 1   
    16     5    21 1   
    17     6    11 1   
    18     6    15 1   
    19     7    16 1   
    20     8    18 1   
    21     9    20 1   
    22    10    22 1   
    23    11    24 1   
    24    12    23 1   
@<TRIPOS>SUBSTRUCTURE
     1 CBU         1 TEMP              0 ****  ****    0 ROOT
