@<TRIPOS>MOLECULE
CBU
   24    24     1     0     0
SMALL
No Charge or Current Charge


@<TRIPOS>ATOM
      1 C1           0.7260    -1.1330    -0.1600 c6         1 CBU       0.143300
      2 C2          -0.8190    -1.0970     0.0920 c6         1 CBU       0.143300
      3 C3          -1.4500     0.1840    -0.5420 c6         1 CBU       0.143300
      4 C4          -0.7770     1.4870    -0.0070 c6         1 CBU       0.143300
      5 C5           0.7730     1.4490    -0.2250 c6         1 CBU       0.143300
      6 C6           1.4020     0.1620     0.3990 c6         1 CBU       0.143300
      7 O1           1.3540    -2.2810     0.4490 oh         1 CBU      -0.710833
      8 O2          -1.4890    -2.2560    -0.4490 oh         1 CBU      -0.710833
      9 O3          -2.8610     0.2220    -0.2540 oh         1 CBU      -0.710833
     10 O4          -1.1130     1.6560     1.3890 oh         1 CBU      -0.710833
     11 O6           2.8230     0.1200     0.1340 oh         1 CBU      -0.710833
     12 OXT          1.1040     1.5080    -1.6250 oh         1 CBU      -0.710833
     13 H1           0.8890    -1.1620    -1.2480 h1         1 CBU       0.055200
     14 H2          -0.9810    -1.0550     1.1800 h1         1 CBU       0.055200
     15 H6           1.2260     0.1910     1.4860 h1         1 CBU       0.055200
     16 HA           2.3150    -2.0530     0.4620 ho         1 CBU       0.512167
     17 H3          -1.2950     0.1420    -1.6310 h1         1 CBU       0.055200
     18 HB          -2.4280    -1.9680    -0.5520 ho         1 CBU       0.512167
     19 H4          -1.1770     2.3350    -0.5850 h1         1 CBU       0.055200
     20 HC          -2.9170     0.7260     0.5960 ho         1 CBU       0.512167
     21 H5           1.2080     2.3220     0.2850 h1         1 CBU       0.055200
     22 HD          -0.8850     2.5830     1.6370 ho         1 CBU       0.512167
     23 HOT          2.0280     1.1610    -1.6810 ho         1 CBU       0.512167
     24 HE           3.2620     0.7200     0.7850 ho         1 CBU       0.512167
@<TRIPOS>BOND
     1     1     2 1   
     2     1     6 1   
     3     1     7 1   
     4     1    13 1   
     5     2     3 1   
     6     2     8 1   
     7     2    14 1   
     8     3     4 1   
     9     3     9 1   
    10     3    17 1   
    11     4     5 1   
    12     4    10 1   
    13     4    19 1   
    14     5     6 1   
    15     5    12 1   
    16     5    21 1   
    17     6    11 1   
    18     6    15 1   
    19     7    16 1   
    20     8    18 1   
    21     9    20 1   
    22    10    22 1   
    23    11    24 1   
    24    12    23 1   
@<TRIPOS>SUBSTRUCTURE
     1 CBU         1 TEMP              0 ****  ****    0 ROOT
