@<TRIPOS>MOLECULE
CBW
   79    83     1     0     0
SMALL
abcg2


@<TRIPOS>ATOM
      1 C1          -3.4980    -1.9320     0.3330 c6         1 CBW      -0.073400
      2 C2          -5.0120    -2.0630     0.3820 c6         1 CBW      -0.108400
      3 C3          -5.6520    -0.8900     1.1000 c6         1 CBW       0.174300
      4 C4          -5.2950     0.4690     0.4750 c6         1 CBW      -0.023000
      5 C5          -3.7430     0.5410     0.3610 c6         1 CBW      -0.050700
      6 C6          -3.2290     1.8840    -0.1430 c6         1 CBW      -0.069400
      7 C7          -1.7550     2.0470     0.1910 c6         1 CBW      -0.072400
      8 C8          -0.8670     0.9310    -0.3780 c6         1 CBW      -0.013000
      9 C9          -1.4980    -0.4630    -0.0890 c6         1 CBW      -0.152700
     10 C10         -3.0280    -0.6370    -0.3640 c6         1 CBW      -0.005000
     11 C11         -0.5950    -1.5370    -0.6810 c          1 CBW       0.583300
     12 C12          0.8430    -1.2710    -0.6960 ce         1 CBW      -0.348200
     13 C13          1.4190    -0.1310    -0.2880 c2         1 CBW       0.000600
     14 C14          0.5640     0.9800     0.2920 c6         1 CBW      -0.008800
     15 C15          1.2060     2.3750     0.1110 c6         1 CBW      -0.062400
     16 C16          2.7240     2.3900     0.2330 c6         1 CBW      -0.066400
     17 C17          3.4020     1.3850    -0.7000 c6         1 CBW      -0.033000
     18 C18          2.9260    -0.0310    -0.3310 c6         1 CBW      -0.028500
     19 C19         -3.3530    -0.7180    -1.8670 c3         1 CBW      -0.076100
     20 C20          3.5450    -0.5580     0.9770 c6         1 CBW      -0.029400
     21 C21          5.0720    -0.4990     0.9920 c6         1 CBW      -0.184000
     22 C22          5.4920     0.9490     0.7350 c6         1 CBW      -0.040400
     23 C23          4.9300     1.4740    -0.5780 c6         1 CBW      -0.060400
     24 C24         -6.0270     0.6920    -0.8520 c3         1 CBW      -0.079100
     25 C25         -5.7620     1.5590     1.4540 c3         1 CBW      -0.079100
     26 C26         -0.7770     1.1620    -1.8960 c3         1 CBW      -0.090100
     27 C27          0.5110     0.7190     1.8190 c3         1 CBW      -0.086100
     28 C28          3.0330     1.6800    -2.1560 c3         1 CBW      -0.085100
     29 C33          5.7100    -1.4760    -0.0350 c          1 CBW       0.721000
     30 C34          5.5640    -0.9390     2.3750 c3         1 CBW      -0.058100
     31 O3          -7.0600    -1.0170     1.1490 oh         1 CBW      -0.665000
     32 O11         -0.9990    -2.6030    -1.1170 o          1 CBW      -0.557100
     33 O34          5.0540    -2.4920    -0.3440 o          1 CBW      -0.731000
     34 O35          6.8620    -1.2060    -0.4340 o          1 CBW      -0.731000
     35 H11C        -3.1160    -1.9370     1.3610 hc         1 CBW       0.054700
     36 H12C        -3.0780    -2.8050    -0.1580 hc         1 CBW       0.054700
     37 H21C        -5.4300    -2.1650    -0.6240 hc         1 CBW       0.041200
     38 H22C        -5.2720    -2.9890     0.9060 hc         1 CBW       0.041200
     39 H3          -5.2430    -0.8750     2.1250 h1         1 CBW       0.022700
     40 HA          -7.2650    -1.8650     1.5550 ho         1 CBW       0.435000
     41 H5          -3.4010     0.4610     1.4050 hc         1 CBW       0.037700
     42 H241        -7.0960     0.8250    -0.6810 hc         1 CBW       0.033200
     43 H242        -5.6710     1.6000    -1.3410 hc         1 CBW       0.033200
     44 H243        -5.9090    -0.1260    -1.5590 hc         1 CBW       0.033200
     45 H251        -5.1750     1.5410     2.3770 hc         1 CBW       0.033200
     46 H252        -5.6780     2.5600     1.0300 hc         1 CBW       0.033200
     47 H253        -6.8080     1.4140     1.7220 hc         1 CBW       0.033200
     48 H61C        -3.4040     2.0010    -1.2160 hc         1 CBW       0.037700
     49 H62C        -3.7680     2.7060     0.3290 hc         1 CBW       0.037700
     50 H71C        -1.3980     3.0120    -0.1770 hc         1 CBW       0.039200
     51 H72C        -1.6770     2.0870     1.2790 hc         1 CBW       0.039200
     52 H9          -1.4130    -0.6130     0.9960 hc         1 CBW       0.064700
     53 H261        -0.2730     2.0980    -2.1340 hc         1 CBW       0.036700
     54 H262        -0.2590     0.3670    -2.4300 hc         1 CBW       0.036700
     55 H263        -1.7710     1.2440    -2.3290 hc         1 CBW       0.036700
     56 H191        -4.2130    -1.3600    -2.0570 hc         1 CBW       0.034367
     57 H192        -3.5910     0.2490    -2.3050 hc         1 CBW       0.034367
     58 H193        -2.5300    -1.1350    -2.4420 hc         1 CBW       0.034367
     59 H12          1.4580    -2.0760    -1.0880 ha         1 CBW       0.218000
     60 H18          3.2640    -0.7160    -1.1160 hc         1 CBW       0.097700
     61 H151         0.9360     2.8050    -0.8530 hc         1 CBW       0.030200
     62 H152         0.7820     3.0490     0.8590 hc         1 CBW       0.030200
     63 H271         0.3230    -0.3220     2.0760 hc         1 CBW       0.036700
     64 H272         1.4600     0.9890     2.2760 hc         1 CBW       0.036700
     65 H273        -0.2460     1.3330     2.3060 hc         1 CBW       0.036700
     66 H161         3.0830     3.3980     0.0020 hc         1 CBW       0.036700
     67 H162         3.0240     2.2010     1.2680 hc         1 CBW       0.036700
     68 H231         5.3810     0.9060    -1.3980 hc         1 CBW       0.040200
     69 H232         5.2320     2.5160    -0.7310 hc         1 CBW       0.040200
     70 H281         3.2860     2.7090    -2.4240 hc         1 CBW       0.026700
     71 H282         3.5800     1.0180    -2.8310 hc         1 CBW       0.026700
     72 H283         1.9720     1.5380    -2.3620 hc         1 CBW       0.026700
     73 H201         3.1780     0.0150     1.8340 hc         1 CBW       0.027200
     74 H202         3.2080    -1.5850     1.1290 hc         1 CBW       0.027200
     75 H221         5.1500     1.5720     1.5690 hc         1 CBW       0.024200
     76 H222         6.5800     1.0260     0.7230 hc         1 CBW       0.024200
     77 H341         5.2750    -1.9700     2.5890 hc         1 CBW       0.016367
     78 H342         6.6520    -0.8720     2.4490 hc         1 CBW       0.016367
     79 H343         5.1380    -0.3050     3.1570 hc         1 CBW       0.016367
@<TRIPOS>BOND
     1     1     2 1   
     2     1    10 1   
     3     1    35 1   
     4     1    36 1   
     5     2     3 1   
     6     2    37 1   
     7     2    38 1   
     8     3     4 1   
     9     3    31 1   
    10     3    39 1   
    11     4     5 1   
    12     4    24 1   
    13     4    25 1   
    14     5     6 1   
    15     5    10 1   
    16     5    41 1   
    17     6     7 1   
    18     6    48 1   
    19     6    49 1   
    20     7     8 1   
    21     7    50 1   
    22     7    51 1   
    23     8     9 1   
    24     8    14 1   
    25     8    26 1   
    26     9    10 1   
    27     9    11 1   
    28     9    52 1   
    29    10    19 1   
    30    11    12 1   
    31    11    32 2   
    32    12    13 2   
    33    12    59 1   
    34    13    14 1   
    35    13    18 1   
    36    14    15 1   
    37    14    27 1   
    38    15    16 1   
    39    15    61 1   
    40    15    62 1   
    41    16    17 1   
    42    16    66 1   
    43    16    67 1   
    44    17    18 1   
    45    17    23 1   
    46    17    28 1   
    47    18    20 1   
    48    18    60 1   
    49    19    56 1   
    50    19    57 1   
    51    19    58 1   
    52    20    21 1   
    53    20    73 1   
    54    20    74 1   
    55    21    22 1   
    56    21    29 1   
    57    21    30 1   
    58    22    23 1   
    59    22    75 1   
    60    22    76 1   
    61    23    68 1   
    62    23    69 1   
    63    24    42 1   
    64    24    43 1   
    65    24    44 1   
    66    25    45 1   
    67    25    46 1   
    68    25    47 1   
    69    26    53 1   
    70    26    54 1   
    71    26    55 1   
    72    27    63 1   
    73    27    64 1   
    74    27    65 1   
    75    28    70 1   
    76    28    71 1   
    77    28    72 1   
    78    29    33 1   
    79    29    34 1   
    80    30    77 1   
    81    30    78 1   
    82    30    79 1   
    83    31    40 1   
@<TRIPOS>SUBSTRUCTURE
     1 CBW         1 TEMP              0 ****  ****    0 ROOT
