@<TRIPOS>MOLECULE
CBW
   79    83     1     0     0
SMALL
No Charge or Current Charge


@<TRIPOS>ATOM
      1 C1          -3.6710    -1.9140     0.5420 c6         1 CBW      -0.073400
      2 C2          -5.2160    -2.0440     0.4310 c6         1 CBW      -0.108400
      3 C3          -5.9580    -0.8020     0.9750 c6         1 CBW       0.174300
      4 C4          -5.5130     0.5370     0.2780 c6         1 CBW      -0.023000
      5 C5          -3.8960     0.6060     0.4340 c6         1 CBW      -0.050700
      6 C6          -3.2720     1.9550    -0.0140 c6         1 CBW      -0.069400
      7 C7          -1.7850     2.0530     0.4270 c6         1 CBW      -0.072400
      8 C8          -0.8630     0.9170    -0.1420 c6         1 CBW      -0.013000
      9 C9          -1.4960    -0.5030     0.2270 c6         1 CBW      -0.152700
     10 C10         -3.0630    -0.6520    -0.1790 c6         1 CBW      -0.005000
     11 C11         -0.5330    -1.6660    -0.1760 c          1 CBW       0.583300
     12 C12          0.8740    -1.3170    -0.5120 ce         1 CBW      -0.348200
     13 C13          1.4580    -0.1340    -0.2070 c2         1 CBW       0.000600
     14 C14          0.6290     0.9870     0.4750 c6         1 CBW      -0.008800
     15 C15          1.2710     2.4210     0.3060 c6         1 CBW      -0.062400
     16 C16          2.8180     2.4460     0.3460 c6         1 CBW      -0.066400
     17 C17          3.4470     1.4820    -0.7040 c6         1 CBW      -0.033000
     18 C18          2.9820     0.0190    -0.3990 c6         1 CBW      -0.028500
     19 C19         -3.2020    -0.8960    -1.7470 c3         1 CBW      -0.076100
     20 C20          3.7190    -0.6080     0.8320 c6         1 CBW      -0.029400
     21 C21          5.2790    -0.5710     0.7320 c6         1 CBW      -0.184000
     22 C22          5.6560     0.9380     0.5840 c6         1 CBW      -0.040400
     23 C23          5.0090     1.5760    -0.6700 c6         1 CBW      -0.060400
     24 C24         -6.0620     0.6220    -1.2120 c3         1 CBW      -0.079100
     25 C25         -6.2520     1.7320     1.0300 c3         1 CBW      -0.079100
     26 C26         -0.7780     1.1260    -1.7140 c3         1 CBW      -0.090100
     27 C27          0.6630     0.6690     2.0200 c3         1 CBW      -0.086100
     28 C28          3.0080     1.8890    -2.1510 c3         1 CBW      -0.085100
     29 C33          5.8070    -1.4140    -0.4800 c          1 CBW       0.721000
     30 C34          5.9090    -1.1500     2.0380 c3         1 CBW      -0.058100
     31 O3          -7.3710    -1.0240     0.8660 oh         1 CBW      -0.665000
     32 O11         -0.8330    -2.8470    -0.0790 o          1 CBW      -0.557100
     33 O34          5.2490    -2.4790    -0.7050 o          1 CBW      -0.731000
     34 O35          6.9710    -1.2400    -0.8160 o          1 CBW      -0.731000
     35 H11C        -3.3990    -1.9020     1.6070 hc         1 CBW       0.054700
     36 H12C        -3.2470    -2.8380     0.1350 hc         1 CBW       0.054700
     37 H21C        -5.5200    -2.2480    -0.6020 hc         1 CBW       0.041200
     38 H22C        -5.5290    -2.9270     1.0040 hc         1 CBW       0.041200
     39 H3          -5.7000    -0.7170     2.0410 h1         1 CBW       0.022700
     40 HA          -7.5620    -1.8510     1.3580 ho         1 CBW       0.435000
     41 H5          -3.7230     0.5710     1.5200 hc         1 CBW       0.037700
     42 H241        -7.1530     0.7240    -1.2350 hc         1 CBW       0.033200
     43 H242        -5.6490     1.4890    -1.7400 hc         1 CBW       0.033200
     44 H243        -5.8270    -0.2680    -1.8010 hc         1 CBW       0.033200
     45 H251        -5.9200     1.8080     2.0730 hc         1 CBW       0.033200
     46 H252        -6.0570     2.6980     0.5500 hc         1 CBW       0.033200
     47 H253        -7.3410     1.6050     1.0430 hc         1 CBW       0.033200
     48 H61C        -3.3860     2.1020    -1.0940 hc         1 CBW       0.037700
     49 H62C        -3.8050     2.7910     0.4540 hc         1 CBW       0.037700
     50 H71C        -1.4020     3.0360     0.1240 hc         1 CBW       0.039200
     51 H72C        -1.7660     2.0570     1.5230 hc         1 CBW       0.039200
     52 H9          -1.5150    -0.5660     1.3210 hc         1 CBW       0.064700
     53 H261        -0.3090     2.0690    -1.9980 hc         1 CBW       0.036700
     54 H262        -0.2280     0.3300    -2.2270 hc         1 CBW       0.036700
     55 H263        -1.7480     1.1880    -2.2010 hc         1 CBW       0.036700
     56 H191        -3.9420    -1.6610    -2.0010 hc         1 CBW       0.034367
     57 H192        -3.5160     0.0090    -2.2760 hc         1 CBW       0.034367
     58 H193        -2.2660    -1.2400    -2.1990 hc         1 CBW       0.034367
     59 H12          1.4650    -2.1440    -0.8990 ha         1 CBW       0.218000
     60 H18          3.2570    -0.5900    -1.2720 hc         1 CBW       0.097700
     61 H151         0.9590     2.9210    -0.6130 hc         1 CBW       0.030200
     62 H152         0.8950     3.0830     1.0990 hc         1 CBW       0.030200
     63 H271         0.5040    -0.3930     2.2340 hc         1 CBW       0.036700
     64 H272         1.6250     0.9270     2.4730 hc         1 CBW       0.036700
     65 H273        -0.0830     1.2350     2.5860 hc         1 CBW       0.036700
     66 H161         3.1600     3.4730     0.1580 hc         1 CBW       0.036700
     67 H162         3.1650     2.2070     1.3590 hc         1 CBW       0.036700
     68 H231         5.4310     1.0930    -1.5620 hc         1 CBW       0.040200
     69 H232         5.3190     2.6290    -0.7380 hc         1 CBW       0.040200
     70 H281         3.2250     2.9450    -2.3530 hc         1 CBW       0.026700
     71 H282         3.5320     1.2970    -2.9110 hc         1 CBW       0.026700
     72 H283         1.9410     1.7310    -2.3270 hc         1 CBW       0.026700
     73 H201         3.4180    -0.0950     1.7510 hc         1 CBW       0.027200
     74 H202         3.3820    -1.6450     0.9660 hc         1 CBW       0.027200
     75 H221         5.3550     1.4940     1.4830 hc         1 CBW       0.024200
     76 H222         6.7470     1.0520     0.5250 hc         1 CBW       0.024200
     77 H341         5.6350    -2.2020     2.1800 hc         1 CBW       0.016367
     78 H342         7.0040    -1.0940     2.0150 hc         1 CBW       0.016367
     79 H343         5.5710    -0.5990     2.9250 hc         1 CBW       0.016367
@<TRIPOS>BOND
     1     1     2 1   
     2     1    10 1   
     3     1    35 1   
     4     1    36 1   
     5     2     3 1   
     6     2    37 1   
     7     2    38 1   
     8     3     4 1   
     9     3    31 1   
    10     3    39 1   
    11     4     5 1   
    12     4    24 1   
    13     4    25 1   
    14     5     6 1   
    15     5    10 1   
    16     5    41 1   
    17     6     7 1   
    18     6    48 1   
    19     6    49 1   
    20     7     8 1   
    21     7    50 1   
    22     7    51 1   
    23     8     9 1   
    24     8    14 1   
    25     8    26 1   
    26     9    10 1   
    27     9    11 1   
    28     9    52 1   
    29    10    19 1   
    30    11    12 1   
    31    11    32 2   
    32    12    13 2   
    33    12    59 1   
    34    13    14 1   
    35    13    18 1   
    36    14    15 1   
    37    14    27 1   
    38    15    16 1   
    39    15    61 1   
    40    15    62 1   
    41    16    17 1   
    42    16    66 1   
    43    16    67 1   
    44    17    18 1   
    45    17    23 1   
    46    17    28 1   
    47    18    20 1   
    48    18    60 1   
    49    19    56 1   
    50    19    57 1   
    51    19    58 1   
    52    20    21 1   
    53    20    73 1   
    54    20    74 1   
    55    21    22 1   
    56    21    29 1   
    57    21    30 1   
    58    22    23 1   
    59    22    75 1   
    60    22    76 1   
    61    23    68 1   
    62    23    69 1   
    63    24    42 1   
    64    24    43 1   
    65    24    44 1   
    66    25    45 1   
    67    25    46 1   
    68    25    47 1   
    69    26    53 1   
    70    26    54 1   
    71    26    55 1   
    72    27    63 1   
    73    27    64 1   
    74    27    65 1   
    75    28    70 1   
    76    28    71 1   
    77    28    72 1   
    78    29    33 1   
    79    29    34 1   
    80    30    77 1   
    81    30    78 1   
    82    30    79 1   
    83    31    40 1   
@<TRIPOS>SUBSTRUCTURE
     1 CBW         1 TEMP              0 ****  ****    0 ROOT
