@<TRIPOS>MOLECULE
CBZ
   18    18     1     0     0
SMALL
No Charge or Current Charge


@<TRIPOS>ATOM
      1 C           -3.1240    -0.0000    -0.1160 c          1 CBZ       0.596900
      2 O1          -3.9680     0.0100     0.7690 o          1 CBZ      -0.437000
      3 O2          -1.7850    -0.0030     0.1570 os         1 CBZ      -0.447100
      4 C1          -0.9000    -0.0150    -0.9720 c3         1 CBZ       0.221900
      5 C7           0.5340    -0.0160    -0.4600 ca         1 CBZ      -0.102300
      6 C2           1.1990    -1.2330    -0.2100 ca         1 CBZ      -0.080500
      7 C3           2.5240    -1.2340     0.2610 ca         1 CBZ      -0.114000
      8 C4           3.1910    -0.0180     0.4870 ca         1 CBZ      -0.094000
      9 C5           2.5320     1.1990     0.2420 ca         1 CBZ      -0.114000
     10 C6           1.2070     1.2000    -0.2290 ca         1 CBZ      -0.080500
     11 H           -3.3680    -0.0080    -1.1950 h5         1 CBZ      -0.010800
     12 H1'1        -1.0710    -0.9070    -1.5890 h1         1 CBZ       0.042700
     13 H1'2        -1.0640     0.8690    -1.6030 h1         1 CBZ       0.042700
     14 H2           0.6890    -2.1790    -0.3810 ha         1 CBZ       0.114000
     15 H3           3.0320    -2.1760     0.4520 ha         1 CBZ       0.116000
     16 H4           4.2160    -0.0190     0.8520 ha         1 CBZ       0.115000
     17 H5           3.0470     2.1410     0.4180 ha         1 CBZ       0.116000
     18 H6           0.7040     2.1470    -0.4140 ha         1 CBZ       0.114000
@<TRIPOS>BOND
     1     1     2 2   
     2     1     3 1   
     3     1    11 1   
     4     3     4 1   
     5     4     5 1   
     6     4    12 1   
     7     4    13 1   
     8     5     6 ar  
     9     5    10 ar  
    10     6     7 ar  
    11     6    14 1   
    12     7     8 ar  
    13     7    15 1   
    14     8     9 ar  
    15     8    16 1   
    16     9    10 ar  
    17     9    17 1   
    18    10    18 1   
@<TRIPOS>SUBSTRUCTURE
     1 CBZ         1 TEMP              0 ****  ****    0 ROOT
