@<TRIPOS>MOLECULE
CC0
   78    80     1     0     0
SMALL
No Charge or Current Charge


@<TRIPOS>ATOM
      1 P1          68.4820    25.1770    35.5120 p5         1 CC0       1.183000
      2 OR1         67.7770    25.6280    36.7480 o          1 CC0      -0.933167
      3 OR2         69.6780    26.0390    35.2820 o          1 CC0      -0.933167
      4 O10         68.9270    23.7630    35.6870 o          1 CC0      -0.933167
      5 C1          59.6260    27.8440    32.4480 c3         1 CC0       0.172000
      6 N1          61.0660    27.6130    32.3840 ns         1 CC0      -0.516900
      7 C0          63.4660    27.7610    32.9720 c3         1 CC0       0.045700
      8 C3          61.9930    28.1840    33.2300 c          1 CC0       0.597100
      9 O2          61.6650    28.9690    34.1140 o          1 CC0      -0.617100
     10 N2          64.3980    28.6610    33.6910 ns         1 CC0      -0.454900
     11 C5          65.1320    25.8040    33.1650 ca         1 CC0      -0.237300
     12 C6          66.0280    25.7320    34.2490 ca         1 CC0      -0.069000
     13 C7          65.5660    25.4240    31.8860 ca         1 CC0      -0.104000
     14 C8          67.3540    25.2840    34.0650 ca         1 CC0      -0.152500
     15 C9          66.8810    24.9760    31.6920 ca         1 CC0      -0.238000
     16 C10         67.7890    24.9050    32.7770 ca         1 CC0       0.242100
     17 O3          69.0850    24.4440    32.6050 os         1 CC0      -0.263100
     18 C11         59.0250    27.9000    31.0310 c3         1 CC0      -0.102100
     19 C12         65.4990    29.2720    33.1380 c          1 CC0       0.606100
     20 C13         66.3410    30.0750    34.1220 c3         1 CC0      -0.173100
     21 O4          65.7740    29.1980    31.9480 o          1 CC0      -0.684100
     22 O5          57.1130    23.9130    35.7980 os         1 CC0      -0.375100
     23 C14         58.9570    26.7910    33.3290 ca         1 CC0      -0.124300
     24 C15         58.9520    25.4320    32.9590 ca         1 CC0      -0.005000
     25 C16         58.3410    24.4450    33.7700 ca         1 CC0      -0.178600
     26 C17         57.7230    24.8500    34.9850 ca         1 CC0       0.165100
     27 C18         57.7380    26.2140    35.3530 ca         1 CC0      -0.222000
     28 C19         58.3500    27.1740    34.5350 ca         1 CC0      -0.037000
     29 C20         56.4640    24.2530    37.0370 c3         1 CC0       0.176600
     30 C21         55.8780    22.9620    37.6750 c6         1 CC0      -0.067700
     31 C22         55.3100    23.2510    39.0940 c6         1 CC0      -0.070400
     32 C23         54.7320    21.9710    39.7470 c6         1 CC0      -0.073900
     33 C24         53.6520    21.3220    38.8480 c6         1 CC0      -0.073400
     34 C25         54.2070    21.0270    37.4340 c6         1 CC0      -0.073900
     35 C26         54.7860    22.3060    36.7800 c6         1 CC0      -0.070400
     36 C27         58.3890    23.0100    33.2800 c          1 CC0       0.623700
     37 N3          57.8400    22.0320    34.0260 nt         1 CC0      -0.603000
     38 O6          58.9120    22.6990    32.2220 o          1 CC0      -0.608100
     39 C28         69.6120    24.0040    31.3280 c3         1 CC0       0.022600
     40 C29         69.9070    25.1620    30.3230 c          1 CC0       0.693000
     41 O7          70.1630    24.8540    29.1660 o          1 CC0      -0.746500
     42 O8          69.8920    26.3250    30.7060 o          1 CC0      -0.746500
     43 HC11        59.4570    28.8310    32.9000 h1         1 CC0       0.061700
     44 HN11        61.4210    26.9850    31.6730 hn         1 CC0       0.321500
     45 HC01        63.6380    27.8550    31.8920 h1         1 CC0       0.064700
     46 HN21        64.2360    28.8300    34.6770 hn         1 CC0       0.370500
     47 HC41        63.0130    25.6420    32.8030 hc         1 CC0       0.030200
     48 HC42        63.4090    26.1540    34.4280 hc         1 CC0       0.030200
     49 HC61        65.6910    26.0220    35.2410 ha         1 CC0       0.116000
     50 HC71        64.8840    25.4730    31.0410 ha         1 CC0       0.043000
     51 HC91        67.1770    24.6870    30.6890 ha         1 CC0       0.100000
     52 H111        59.1940    26.9630    30.4860 hc         1 CC0       0.035367
     53 H112        59.4780    28.7160    30.4560 hc         1 CC0       0.035367
     54 H113        57.9450    28.0790    31.0820 hc         1 CC0       0.035367
     55 H131        67.1980    30.5640    33.6440 hc         1 CC0       0.058033
     56 H132        66.6560    29.4170    34.9400 hc         1 CC0       0.058033
     57 H133        65.6990    30.7980    34.6370 hc         1 CC0       0.058033
     58 H151        59.4360    25.1420    32.0290 ha         1 CC0       0.154000
     59 H181        57.2800    26.5570    36.2750 ha         1 CC0       0.103000
     60 H191        58.3520    28.2180    34.8420 ha         1 CC0       0.108000
     61 H201        55.6500    24.9700    36.8670 h1         1 CC0       0.035700
     62 H202        57.1850    24.6990    37.7350 h1         1 CC0       0.035700
     63 H211        56.7190    22.2620    37.7770 hc         1 CC0       0.066700
     64 H221        54.5250    24.0180    39.0320 hc         1 CC0       0.042950
     65 H222        56.0990    23.6650    39.7370 hc         1 CC0       0.042950
     66 H231        54.3020    22.2150    40.7280 hc         1 CC0       0.037950
     67 H232        55.5420    21.2510    39.9310 hc         1 CC0       0.037950
     68 H241        52.7830    21.9900    38.7730 hc         1 CC0       0.030700
     69 H242        53.2930    20.3920    39.3090 hc         1 CC0       0.030700
     70 H251        53.4120    20.6120    36.8010 hc         1 CC0       0.037950
     71 H252        54.9900    20.2580    37.4970 hc         1 CC0       0.037950
     72 H261        55.2010    22.0520    35.7950 hc         1 CC0       0.042950
     73 H262        53.9740    23.0240    36.5960 hc         1 CC0       0.042950
     74 HN31        57.4030    22.2760    34.9030 hn         1 CC0       0.316500
     75 HN32        57.8720    21.0780    33.7020 hn         1 CC0       0.316500
     76 H281        68.9310    23.2830    30.8570 h1         1 CC0       0.012700
     77 H282        70.5630    23.4820    31.4950 h1         1 CC0       0.012700
     78 C4          63.6960    26.2810    33.3760 c3         1 CC0      -0.001100
@<TRIPOS>BOND
     1     1     2 1   
     2     1     3 1   
     3     1     4 1   
     4     1    14 1   
     5     5     6 1   
     6     5    18 1   
     7     5    23 1   
     8     5    43 1   
     9     6     8 1   
    10     6    44 1   
    11     7     8 1   
    12     7    10 1   
    13     7    45 1   
    14     7    78 1   
    15     8     9 2   
    16    10    19 1   
    17    10    46 1   
    18    11    12 ar  
    19    11    13 ar  
    20    11    78 1   
    21    12    14 ar  
    22    12    49 1   
    23    13    15 ar  
    24    13    50 1   
    25    14    16 ar  
    26    15    16 ar  
    27    15    51 1   
    28    16    17 1   
    29    17    39 1   
    30    18    52 1   
    31    18    53 1   
    32    18    54 1   
    33    19    20 1   
    34    19    21 2   
    35    20    55 1   
    36    20    56 1   
    37    20    57 1   
    38    22    26 1   
    39    22    29 1   
    40    23    24 ar  
    41    23    28 ar  
    42    24    25 ar  
    43    24    58 1   
    44    25    26 ar  
    45    25    36 1   
    46    26    27 ar  
    47    27    28 ar  
    48    27    59 1   
    49    28    60 1   
    50    29    30 1   
    51    29    61 1   
    52    29    62 1   
    53    30    31 1   
    54    30    35 1   
    55    30    63 1   
    56    31    32 1   
    57    31    64 1   
    58    31    65 1   
    59    32    33 1   
    60    32    66 1   
    61    32    67 1   
    62    33    34 1   
    63    33    68 1   
    64    33    69 1   
    65    34    35 1   
    66    34    70 1   
    67    34    71 1   
    68    35    72 1   
    69    35    73 1   
    70    36    37 1   
    71    36    38 2   
    72    37    74 1   
    73    37    75 1   
    74    39    40 1   
    75    39    76 1   
    76    39    77 1   
    77    40    41 1   
    78    40    42 1   
    79    47    78 1   
    80    48    78 1   
@<TRIPOS>SUBSTRUCTURE
     1 CC0         1 TEMP              0 ****  ****    0 ROOT
