@<TRIPOS>MOLECULE
CC0
   78    80     1     0     0
SMALL
bcc


@<TRIPOS>ATOM
      1 P1          68.2830    24.9430    35.5590 p5         1 CC0       1.183000
      2 OR1         67.4460    25.4800    36.7290 o          1 CC0      -0.933167
      3 OR2         69.4280    25.8730    35.1560 o          1 CC0      -0.933167
      4 O10         68.6820    23.4760    35.7250 o          1 CC0      -0.933167
      5 C1          59.6970    28.1260    32.4820 c3         1 CC0       0.172000
      6 N1          61.1240    27.9280    32.3150 ns         1 CC0      -0.583900
      7 C0          63.4050    27.5800    33.0300 c3         1 CC0       0.045700
      8 C3          61.9940    28.0810    33.3260 c          1 CC0       0.664100
      9 O2          61.6750    28.5080    34.4220 o          1 CC0      -0.617100
     10 N2          64.3830    28.3840    33.7080 ns         1 CC0      -0.521900
     11 C5          64.8620    25.5220    33.2680 ca         1 CC0      -0.237300
     12 C6          65.8090    25.4620    34.2910 ca         1 CC0      -0.087000
     13 C7          65.2330    25.0500    32.0180 ca         1 CC0      -0.122000
     14 C8          67.0990    24.9740    34.1160 ca         1 CC0      -0.152500
     15 C9          66.5100    24.5490    31.7960 ca         1 CC0      -0.256000
     16 C10         67.4450    24.5210    32.8330 ca         1 CC0       0.242100
     17 O3          68.6910    24.0340    32.6850 os         1 CC0      -0.239900
     18 C11         59.0310    28.1370    31.1120 c3         1 CC0      -0.102100
     19 C12         64.5380    29.6890    33.4310 c          1 CC0       0.673100
     20 C13         65.6440    30.3880    34.1790 c3         1 CC0      -0.173100
     21 O4          63.8410    30.2590    32.6020 o          1 CC0      -0.684100
     22 O5          57.4440    24.1110    35.7830 os         1 CC0      -0.351900
     23 C14         59.0960    27.0700    33.3840 ca         1 CC0      -0.124300
     24 C15         59.3920    25.7290    33.1980 ca         1 CC0      -0.023000
     25 C16         58.8610    24.7200    33.9970 ca         1 CC0      -0.178600
     26 C17         57.9670    25.0870    35.0220 ca         1 CC0       0.165100
     27 C18         57.6550    26.4320    35.2130 ca         1 CC0      -0.240000
     28 C19         58.2210    27.4050    34.4040 ca         1 CC0      -0.055000
     29 C20         56.5670    24.4200    36.8590 c3         1 CC0       0.153400
     30 C21         56.1240    23.1200    37.5010 c6         1 CC0      -0.067700
     31 C22         55.3010    23.4250    38.7550 c6         1 CC0      -0.070400
     32 C23         54.8200    22.1460    39.4340 c6         1 CC0      -0.073900
     33 C24         54.0280    21.2680    38.4720 c6         1 CC0      -0.073400
     34 C25         54.8420    20.9610    37.2190 c6         1 CC0      -0.073900
     35 C26         55.3240    22.2390    36.5410 c6         1 CC0      -0.070400
     36 C27         59.3150    23.3250    33.6690 c          1 CC0       0.690700
     37 N3          59.0300    22.3410    34.5320 nt         1 CC0      -0.670000
     38 O6          59.9510    23.1140    32.6420 o          1 CC0      -0.608100
     39 C28         69.0790    23.5000    31.4420 c3         1 CC0      -0.000600
     40 C29         69.3340    24.5340    30.3270 c          1 CC0       0.903600
     41 O7          69.5160    24.0290    29.2000 o          1 CC0      -0.851800
     42 O8          69.3700    25.7330    30.6400 o          1 CC0      -0.851800
     43 HC11        59.5370    29.1030    32.9450 h1         1 CC0       0.061700
     44 HN11        61.4580    27.5840    31.4280 hn         1 CC0       0.321500
     45 HC01        63.5880    27.6100    31.9500 h1         1 CC0       0.064700
     46 HN21        64.9810    27.9470    34.3910 hn         1 CC0       0.370500
     47 HC41        62.7380    25.5470    32.9680 hc         1 CC0       0.030200
     48 HC42        63.2450    26.0720    34.5620 hc         1 CC0       0.030200
     49 HC61        65.5340    25.7970    35.2870 ha         1 CC0       0.134000
     50 HC71        64.5250    25.0670    31.1970 ha         1 CC0       0.061000
     51 HC91        66.7490    24.1880    30.8050 ha         1 CC0       0.118000
     52 H111        59.1550    27.1820    30.5980 hc         1 CC0       0.035367
     53 H112        59.4510    28.9230    30.4830 hc         1 CC0       0.035367
     54 H113        57.9630    28.3230    31.2170 hc         1 CC0       0.035367
     55 H131        65.3140    31.3780    34.4870 hc         1 CC0       0.058033
     56 H132        66.4990    30.5170    33.5140 hc         1 CC0       0.058033
     57 H133        65.9800    29.8410    35.0570 hc         1 CC0       0.058033
     58 H151        60.0770    25.4410    32.4110 ha         1 CC0       0.172000
     59 H181        56.9800    26.7360    36.0000 ha         1 CC0       0.121000
     60 H191        57.9720    28.4440    34.5860 ha         1 CC0       0.126000
     61 H201        55.6960    24.9730    36.4880 h1         1 CC0       0.035700
     62 H202        57.0840    25.0530    37.5890 h1         1 CC0       0.035700
     63 H211        57.0220    22.5730    37.8170 hc         1 CC0       0.066700
     64 H221        54.4360    24.0400    38.4790 hc         1 CC0       0.042950
     65 H222        55.8950    24.0200    39.4550 hc         1 CC0       0.042950
     66 H231        54.2180    22.3940    40.3110 hc         1 CC0       0.037950
     67 H232        55.6880    21.5880    39.8000 hc         1 CC0       0.037950
     68 H241        53.1050    21.7840    38.1860 hc         1 CC0       0.030700
     69 H242        53.7260    20.3410    38.9650 hc         1 CC0       0.030700
     70 H251        54.2490    20.3700    36.5160 hc         1 CC0       0.037950
     71 H252        55.7060    20.3440    37.4900 hc         1 CC0       0.037950
     72 H261        55.9180    21.9890    35.6580 hc         1 CC0       0.042950
     73 H262        54.4560    22.8060    36.1830 hc         1 CC0       0.042950
     74 HN31        58.5180    22.5020    35.3800 hn         1 CC0       0.316500
     75 HN32        59.3600    21.4100    34.3370 hn         1 CC0       0.316500
     76 H281        68.3690    22.7400    31.0920 h1         1 CC0       0.012700
     77 H282        70.0180    22.9730    31.6350 h1         1 CC0       0.012700
     78 C4          63.5020    26.1180    33.5010 c3         1 CC0      -0.001100
@<TRIPOS>BOND
     1     1     2 1   
     2     1     3 1   
     3     1     4 1   
     4     1    14 1   
     5     5     6 1   
     6     5    18 1   
     7     5    23 1   
     8     5    43 1   
     9     6     8 1   
    10     6    44 1   
    11     7     8 1   
    12     7    10 1   
    13     7    45 1   
    14     7    78 1   
    15     8     9 2   
    16    10    19 1   
    17    10    46 1   
    18    11    12 ar  
    19    11    13 ar  
    20    11    78 1   
    21    12    14 ar  
    22    12    49 1   
    23    13    15 ar  
    24    13    50 1   
    25    14    16 ar  
    26    15    16 ar  
    27    15    51 1   
    28    16    17 1   
    29    17    39 1   
    30    18    52 1   
    31    18    53 1   
    32    18    54 1   
    33    19    20 1   
    34    19    21 2   
    35    20    55 1   
    36    20    56 1   
    37    20    57 1   
    38    22    26 1   
    39    22    29 1   
    40    23    24 ar  
    41    23    28 ar  
    42    24    25 ar  
    43    24    58 1   
    44    25    26 ar  
    45    25    36 1   
    46    26    27 ar  
    47    27    28 ar  
    48    27    59 1   
    49    28    60 1   
    50    29    30 1   
    51    29    61 1   
    52    29    62 1   
    53    30    31 1   
    54    30    35 1   
    55    30    63 1   
    56    31    32 1   
    57    31    64 1   
    58    31    65 1   
    59    32    33 1   
    60    32    66 1   
    61    32    67 1   
    62    33    34 1   
    63    33    68 1   
    64    33    69 1   
    65    34    35 1   
    66    34    70 1   
    67    34    71 1   
    68    35    72 1   
    69    35    73 1   
    70    36    37 1   
    71    36    38 2   
    72    37    74 1   
    73    37    75 1   
    74    39    40 1   
    75    39    76 1   
    76    39    77 1   
    77    40    41 1   
    78    40    42 1   
    79    47    78 1   
    80    48    78 1   
@<TRIPOS>SUBSTRUCTURE
     1 CC0         1 TEMP              0 ****  ****    0 ROOT
