@<TRIPOS>MOLECULE
CC1
   82    85     1     0     0
SMALL
No Charge or Current Charge


@<TRIPOS>ATOM
      1 C1           2.8840    -0.9740    -2.0840 c3         1 CC1       0.180000
      2 N1           2.4730    -0.6670    -0.7160 ns         1 CC1      -0.514900
      3 C2           3.3270    -0.3760     0.3280 c          1 CC1       0.589100
      4 CO           2.6430    -0.1340     1.7130 c3         1 CC1       0.046700
      5 N2           3.5780     0.4820     2.6880 ns         1 CC1      -0.458900
      6 C12          4.0710     1.7670     2.6170 c          1 CC1       0.624100
      7 C13          4.9450     2.1720     3.8000 c3         1 CC1      -0.177100
      8 O4           3.8430     2.5250     1.6840 o          1 CC1      -0.623100
      9 C4           1.2730     0.6030     1.6360 c3         1 CC1       0.002900
     10 C5           0.6580     0.8650     3.0110 ca         1 CC1      -0.208300
     11 C6           0.1490    -0.2000     3.7750 ca         1 CC1      -0.114000
     12 C8          -0.4190     0.0000     5.0600 ca         1 CC1      -0.111500
     13 P2          -1.0110    -1.5430     5.9220 p5         1 CC1       1.191000
     14 OR1         -2.4950    -1.6330     5.7650 o          1 CC1      -0.867500
     15 OR2         -0.6410    -1.5410     7.3680 o          1 CC1      -0.867500
     16 OR3         -0.3960    -2.7380     5.2690 o          1 CC1      -0.867500
     17 C10         -0.4970     1.3340     5.5750 ca         1 CC1      -0.091500
     18 P1          -1.2340     1.8460     7.2130 p5         1 CC1       1.188000
     19 OR4         -0.2420     1.5620     8.2930 o          1 CC1      -0.875500
     20 OR5         -1.4950     3.3180     7.1940 o          1 CC1      -0.875500
     21 OR6         -2.5170     1.1360     7.4880 o          1 CC1      -0.875500
     22 C9           0.0330     2.3900     4.7900 ca         1 CC1      -0.134000
     23 C7           0.6000     2.1620     3.5300 ca         1 CC1      -0.176000
     24 O3           4.5420    -0.3290     0.1610 o          1 CC1      -0.636100
     25 C11          3.5350    -2.3740    -2.2300 c3         1 CC1      -0.073400
     26 C30          2.7540    -3.5590    -1.6170 c3         1 CC1      -0.071400
     27 C28          1.3870    -3.8440    -2.2720 c3         1 CC1      -0.062400
     28 C31          0.3510    -2.7120    -2.1120 c3         1 CC1      -0.020100
     29 C19          0.5610    -1.5400    -3.0750 ca         1 CC1      -0.093300
     30 C18         -0.4560    -1.2490    -4.0040 ca         1 CC1      -0.203000
     31 C17         -0.3400    -0.1800    -4.9210 ca         1 CC1       0.152100
     32 O5          -1.3360     0.0680    -5.8460 os         1 CC1      -0.349100
     33 C20         -2.5430    -0.7130    -5.9270 c3         1 CC1       0.173600
     34 C21         -3.4440    -0.1600    -7.0690 c6         1 CC1      -0.057700
     35 C22         -4.6830    -1.0740    -7.2910 c6         1 CC1      -0.075400
     36 C23         -5.5870    -0.5410    -8.4310 c6         1 CC1      -0.069900
     37 C24         -6.0260     0.9180    -8.1630 c6         1 CC1      -0.074400
     38 C25         -4.8010     1.8380    -7.9440 c6         1 CC1      -0.069900
     39 C26         -3.8950     1.3070    -6.8050 c6         1 CC1      -0.075400
     40 C16          0.8210     0.6300    -4.9110 ca         1 CC1      -0.273600
     41 C15          1.8390     0.3300    -3.9730 ca         1 CC1      -0.049000
     42 C14          1.7270    -0.7400    -3.0620 ca         1 CC1      -0.104300
     43 C27          0.9950     1.7970    -5.8650 c          1 CC1       0.635700
     44 N3           2.2430     2.2900    -6.0200 nt         1 CC1      -0.625000
     45 O6           0.0870     2.3470    -6.4650 o          1 CC1      -0.639100
     46 HC11         3.6710    -0.2520    -2.3390 h1         1 CC1       0.041700
     47 HN11         1.4830    -0.6700    -0.5120 hn         1 CC1       0.328500
     48 HCO1         2.4250    -1.1410     2.0900 h1         1 CC1       0.075700
     49 HN21         3.8370    -0.0510     3.5080 hn         1 CC1       0.316500
     50 H131         5.3330     3.1930     3.7110 hc         1 CC1       0.044700
     51 H132         4.3750     2.0380     4.7270 hc         1 CC1       0.044700
     52 H133         5.7530     1.4410     3.9170 hc         1 CC1       0.044700
     53 HC41         1.3970     1.5440     1.0870 hc         1 CC1       0.025200
     54 HC42         0.5710     0.0020     1.0450 hc         1 CC1       0.025200
     55 HC61         0.2000    -1.2030     3.3600 ha         1 CC1       0.093000
     56 HC91         0.0050     3.4110     5.1620 ha         1 CC1       0.105000
     57 HC71         0.9930     3.0000     2.9600 ha         1 CC1       0.038000
     58 H111         3.7190    -2.5730    -3.2930 hc         1 CC1       0.025200
     59 H112         4.5220    -2.3450    -1.7550 hc         1 CC1       0.025200
     60 H301         3.3710    -4.4610    -1.7120 hc         1 CC1       0.036700
     61 H302         2.6170    -3.3980    -0.5410 hc         1 CC1       0.036700
     62 H281         1.5230    -4.0690    -3.3370 hc         1 CC1       0.018700
     63 H282         0.9770    -4.7520    -1.8130 hc         1 CC1       0.018700
     64 H311        -0.6410    -3.1510    -2.2710 hc         1 CC1       0.049700
     65 H312         0.3420    -2.3640    -1.0720 hc         1 CC1       0.049700
     66 H181        -1.3410    -1.8760    -4.0040 ha         1 CC1       0.086000
     67 H201        -2.3020    -1.7630    -6.1440 h1         1 CC1       0.028700
     68 H202        -3.0980    -0.6710    -4.9810 h1         1 CC1       0.028700
     69 H211        -2.8320    -0.1820    -7.9820 hc         1 CC1       0.043700
     70 H221        -4.3580    -2.0960    -7.5300 hc         1 CC1       0.053700
     71 H222        -5.2670    -1.1430    -6.3620 hc         1 CC1       0.053700
     72 H231        -5.0470    -0.5960    -9.3870 hc         1 CC1       0.025700
     73 H232        -6.4720    -1.1840    -8.5350 hc         1 CC1       0.025700
     74 H241        -6.6250     1.2880    -9.0060 hc         1 CC1       0.026700
     75 H242        -6.6770     0.9520    -7.2780 hc         1 CC1       0.026700
     76 H251        -4.2210     1.9080    -8.8750 hc         1 CC1       0.025700
     77 H252        -5.1370     2.8560    -7.7080 hc         1 CC1       0.025700
     78 H261        -4.4340     1.3650    -5.8490 hc         1 CC1       0.053700
     79 H262        -3.0180     1.9610    -6.7060 hc         1 CC1       0.053700
     80 H151         2.7350     0.9440    -3.9290 ha         1 CC1       0.097000
     81 HN31         2.3890     3.0740    -6.6360 hn         1 CC1       0.286500
     82 HN32         3.0190     1.8560    -5.5440 hn         1 CC1       0.286500
@<TRIPOS>BOND
     1     1     2 1   
     2     1    25 1   
     3     1    42 1   
     4     1    46 1   
     5     2     3 1   
     6     2    47 1   
     7     3     4 1   
     8     3    24 2   
     9     4     5 1   
    10     4     9 1   
    11     4    48 1   
    12     5     6 1   
    13     5    49 1   
    14     6     7 1   
    15     6     8 2   
    16     7    50 1   
    17     7    51 1   
    18     7    52 1   
    19     9    10 1   
    20     9    53 1   
    21     9    54 1   
    22    10    11 ar  
    23    10    23 ar  
    24    11    12 ar  
    25    11    55 1   
    26    12    13 1   
    27    12    17 ar  
    28    13    14 1   
    29    13    15 1   
    30    13    16 1   
    31    17    18 1   
    32    17    22 ar  
    33    18    19 1   
    34    18    20 1   
    35    18    21 1   
    36    22    23 ar  
    37    22    56 1   
    38    23    57 1   
    39    25    26 1   
    40    25    58 1   
    41    25    59 1   
    42    26    27 1   
    43    26    60 1   
    44    26    61 1   
    45    27    28 1   
    46    27    62 1   
    47    27    63 1   
    48    28    29 1   
    49    28    64 1   
    50    28    65 1   
    51    29    30 ar  
    52    29    42 ar  
    53    30    31 ar  
    54    30    66 1   
    55    31    32 1   
    56    31    40 ar  
    57    32    33 1   
    58    33    34 1   
    59    33    67 1   
    60    33    68 1   
    61    34    35 1   
    62    34    39 1   
    63    34    69 1   
    64    35    36 1   
    65    35    70 1   
    66    35    71 1   
    67    36    37 1   
    68    36    72 1   
    69    36    73 1   
    70    37    38 1   
    71    37    74 1   
    72    37    75 1   
    73    38    39 1   
    74    38    76 1   
    75    38    77 1   
    76    39    78 1   
    77    39    79 1   
    78    40    41 ar  
    79    40    43 1   
    80    41    42 ar  
    81    41    80 1   
    82    43    44 1   
    83    43    45 2   
    84    44    81 1   
    85    44    82 1   
@<TRIPOS>SUBSTRUCTURE
     1 CC1         1 TEMP              0 ****  ****    0 ROOT
