@<TRIPOS>MOLECULE
CC1
   82    85     1     0     0
SMALL
abcg2


@<TRIPOS>ATOM
      1 C1           2.8020    -1.7220    -1.8410 c3         1 CC1       0.180000
      2 N1           2.4770    -1.2610    -0.5020 ns         1 CC1      -0.514900
      3 C2           2.6690     0.0120    -0.1090 c          1 CC1       0.589100
      4 CO           2.2680     0.2970     1.3460 c3         1 CC1       0.046700
      5 N2           2.5090     1.6720     1.6790 ns         1 CC1      -0.458900
      6 C12          1.8210     2.7120     1.1800 c          1 CC1       0.624100
      7 C13          2.2020     4.0580     1.7500 c3         1 CC1      -0.177100
      8 O4           0.9230     2.5910     0.3590 o          1 CC1      -0.623100
      9 C4           0.8390    -0.1780     1.6860 c3         1 CC1       0.002900
     10 C5           0.4620     0.1390     3.1060 ca         1 CC1      -0.208300
     11 C6           0.8710    -0.6830     4.1520 ca         1 CC1      -0.114000
     12 C8           0.5790    -0.4430     5.5010 ca         1 CC1      -0.111500
     13 P2           1.1460    -1.7930     6.6760 p5         1 CC1       1.191000
     14 OR1         -0.0990    -2.6570     6.9030 o          1 CC1      -0.867500
     15 OR2          1.7340    -1.1420     7.9240 o          1 CC1      -0.867500
     16 OR3          2.2210    -2.5420     5.8590 o          1 CC1      -0.867500
     17 C10         -0.1800     0.7110     5.8130 ca         1 CC1      -0.091500
     18 P1          -0.6570     1.3320     7.5110 p5         1 CC1       1.188000
     19 OR4          0.6190     1.9540     8.0870 o          1 CC1      -0.875500
     20 OR5         -1.7270     2.4050     7.2180 o          1 CC1      -0.875500
     21 OR6         -1.2360     0.1480     8.2820 o          1 CC1      -0.875500
     22 C9          -0.5910     1.5250     4.7520 ca         1 CC1      -0.134000
     23 C7          -0.2890     1.2600     3.4240 ca         1 CC1      -0.176000
     24 O3           3.1500     0.8600    -0.8380 o          1 CC1      -0.636100
     25 C11          3.1000    -3.2240    -1.8440 c3         1 CC1      -0.073400
     26 C30          2.0500    -4.1550    -1.2490 c3         1 CC1      -0.071400
     27 C28          0.6860    -4.1340    -1.9240 c3         1 CC1      -0.062400
     28 C31         -0.0390    -2.7890    -1.8470 c3         1 CC1      -0.020100
     29 C19          0.4460    -1.7760    -2.8480 ca         1 CC1      -0.093300
     30 C18         -0.4500    -1.3350    -3.8190 ca         1 CC1      -0.203000
     31 C17         -0.0800    -0.4120    -4.7920 ca         1 CC1       0.152100
     32 O5          -0.8980     0.0170    -5.7620 os         1 CC1      -0.349100
     33 C20         -2.2460    -0.4220    -5.7910 c3         1 CC1       0.173600
     34 C21         -2.9610     0.3140    -6.9080 c6         1 CC1      -0.057700
     35 C22         -4.3910    -0.2100    -7.0420 c6         1 CC1      -0.075400
     36 C23         -5.1570     0.5190    -8.1410 c6         1 CC1      -0.069900
     37 C24         -5.1490     2.0270    -7.9230 c6         1 CC1      -0.074400
     38 C25         -3.7260     2.5580    -7.7840 c6         1 CC1      -0.069900
     39 C26         -2.9580     1.8260    -6.6880 c6         1 CC1      -0.075400
     40 C16          1.2270     0.0880    -4.7910 ca         1 CC1      -0.273600
     41 C15          2.1140    -0.3660    -3.8240 ca         1 CC1      -0.049000
     42 C14          1.7560    -1.2920    -2.8510 ca         1 CC1      -0.104300
     43 C27          1.6540     1.1390    -5.7660 c          1 CC1       0.635700
     44 N3           2.8150     0.8830    -6.3880 nt         1 CC1      -0.625000
     45 O6           1.0090     2.1610    -5.9490 o          1 CC1      -0.639100
     46 HC11         3.7350    -1.2310    -2.1290 h1         1 CC1       0.041700
     47 HN11         2.1470    -1.9320     0.1720 hn         1 CC1       0.328500
     48 HCO1         2.9540    -0.2800     1.9740 h1         1 CC1       0.075700
     49 HN21         3.2250     1.8570     2.3600 hn         1 CC1       0.316500
     50 H131         2.1770     4.8130     0.9660 hc         1 CC1       0.044700
     51 H132         1.4700     4.3430     2.5070 hc         1 CC1       0.044700
     52 H133         3.1860     4.0690     2.2160 hc         1 CC1       0.044700
     53 HC41         0.1290     0.2680     0.9890 hc         1 CC1       0.025200
     54 HC42         0.7880    -1.2590     1.5400 hc         1 CC1       0.025200
     55 HC61         1.4450    -1.5740     3.9160 ha         1 CC1       0.093000
     56 HC91        -1.1870     2.3980     4.9870 ha         1 CC1       0.105000
     57 HC71        -0.6480     1.9200     2.6420 ha         1 CC1       0.038000
     58 H111         3.2900    -3.5100    -2.8820 hc         1 CC1       0.025200
     59 H112         4.0400    -3.3780    -1.3060 hc         1 CC1       0.025200
     60 H301         2.4490    -5.1710    -1.2940 hc         1 CC1       0.036700
     61 H302         1.9190    -3.9550    -0.1790 hc         1 CC1       0.036700
     62 H281         0.7820    -4.4360    -2.9710 hc         1 CC1       0.018700
     63 H282         0.0590    -4.8890    -1.4440 hc         1 CC1       0.018700
     64 H311        -1.1050    -2.9550    -2.0130 hc         1 CC1       0.049700
     65 H312         0.0420    -2.3870    -0.8320 hc         1 CC1       0.049700
     66 H181        -1.4530    -1.7400    -3.8090 ha         1 CC1       0.086000
     67 H201        -2.2900    -1.5060    -5.9560 h1         1 CC1       0.028700
     68 H202        -2.7360    -0.2110    -4.8320 h1         1 CC1       0.028700
     69 H211        -2.4360     0.0970    -7.8470 hc         1 CC1       0.043700
     70 H221        -4.3780    -1.2850    -7.2460 hc         1 CC1       0.053700
     71 H222        -4.9170    -0.0830    -6.0880 hc         1 CC1       0.053700
     72 H231        -4.7040     0.2880    -9.1110 hc         1 CC1       0.025700
     73 H232        -6.1840     0.1480    -8.1850 hc         1 CC1       0.025700
     74 H241        -5.6630     2.5310    -8.7450 hc         1 CC1       0.026700
     75 H242        -5.7130     2.2640    -7.0140 hc         1 CC1       0.026700
     76 H251        -3.1980     2.4390    -8.7360 hc         1 CC1       0.025700
     77 H252        -3.7410     3.6300    -7.5740 hc         1 CC1       0.025700
     78 H261        -3.4190     2.0430    -5.7160 hc         1 CC1       0.053700
     79 H262        -1.9320     2.1960    -6.6340 hc         1 CC1       0.053700
     80 H151         3.1240     0.0260    -3.8190 ha         1 CC1       0.097000
     81 HN31         3.1980     1.5470    -7.0420 hn         1 CC1       0.286500
     82 HN32         3.2790    -0.0050    -6.3070 hn         1 CC1       0.286500
@<TRIPOS>BOND
     1     1     2 1   
     2     1    25 1   
     3     1    42 1   
     4     1    46 1   
     5     2     3 1   
     6     2    47 1   
     7     3     4 1   
     8     3    24 2   
     9     4     5 1   
    10     4     9 1   
    11     4    48 1   
    12     5     6 1   
    13     5    49 1   
    14     6     7 1   
    15     6     8 2   
    16     7    50 1   
    17     7    51 1   
    18     7    52 1   
    19     9    10 1   
    20     9    53 1   
    21     9    54 1   
    22    10    11 ar  
    23    10    23 ar  
    24    11    12 ar  
    25    11    55 1   
    26    12    13 1   
    27    12    17 ar  
    28    13    14 1   
    29    13    15 1   
    30    13    16 1   
    31    17    18 1   
    32    17    22 ar  
    33    18    19 1   
    34    18    20 1   
    35    18    21 1   
    36    22    23 ar  
    37    22    56 1   
    38    23    57 1   
    39    25    26 1   
    40    25    58 1   
    41    25    59 1   
    42    26    27 1   
    43    26    60 1   
    44    26    61 1   
    45    27    28 1   
    46    27    62 1   
    47    27    63 1   
    48    28    29 1   
    49    28    64 1   
    50    28    65 1   
    51    29    30 ar  
    52    29    42 ar  
    53    30    31 ar  
    54    30    66 1   
    55    31    32 1   
    56    31    40 ar  
    57    32    33 1   
    58    33    34 1   
    59    33    67 1   
    60    33    68 1   
    61    34    35 1   
    62    34    39 1   
    63    34    69 1   
    64    35    36 1   
    65    35    70 1   
    66    35    71 1   
    67    36    37 1   
    68    36    72 1   
    69    36    73 1   
    70    37    38 1   
    71    37    74 1   
    72    37    75 1   
    73    38    39 1   
    74    38    76 1   
    75    38    77 1   
    76    39    78 1   
    77    39    79 1   
    78    40    41 ar  
    79    40    43 1   
    80    41    42 ar  
    81    41    80 1   
    82    43    44 1   
    83    43    45 2   
    84    44    81 1   
    85    44    82 1   
@<TRIPOS>SUBSTRUCTURE
     1 CC1         1 TEMP              0 ****  ****    0 ROOT
