@<TRIPOS>MOLECULE
CC2
   43    46     1     0     0
SMALL
abcg2


@<TRIPOS>ATOM
      1 C1          -5.1270    -0.1700     0.3250 ca         1 CC2      -0.018300
      2 O1          -0.6610     1.7870    -1.1840 oh         1 CC2      -0.510100
      3 C2          -4.1530    -1.1520     0.3870 ca         1 CC2      -0.133000
      4 O2          -1.9430    -1.8650     0.1160 os         1 CC2      -0.335200
      5 C3          -2.8450    -0.8660     0.0240 ca         1 CC2       0.193100
      6 C4          -2.4810     0.4020    -0.4120 ca         1 CC2      -0.204800
      7 C5          -3.4750     1.3870    -0.4680 ca         1 CC2      -0.063000
      8 C6          -4.7820     1.1270    -0.1100 ca         1 CC2      -0.099300
      9 O7           0.0820    -2.6730    -0.0450 o          1 CC2      -0.481000
     10 C8          -0.6280    -1.7060    -0.1980 c          1 CC2       0.685300
     11 C9          -0.2010    -0.4190    -0.6800 cc         1 CC2      -0.292400
     12 C10         -1.0950     0.6040    -0.7710 cd         1 CC2       0.240900
     13 C11         -6.5360    -0.4870     0.7170 c3         1 CC2      -0.055800
     14 C12         -5.8220     2.2050    -0.1750 c3         1 CC2      -0.045800
     15 C13          1.2430    -0.2710    -1.0450 c3         1 CC2       0.038100
     16 C14          2.1630     0.0690     0.1070 ca         1 CC2      -0.048300
     17 C15          3.5720     0.1180    -0.1210 ca         1 CC2      -0.029000
     18 C16          4.4440     0.4360     0.9550 ca         1 CC2      -0.033000
     19 C17          3.9040     0.7040     2.2350 ca         1 CC2      -0.105000
     20 C18          2.5540     0.6580     2.4300 ca         1 CC2      -0.102000
     21 C19          1.6880     0.3400     1.3640 ca         1 CC2      -0.104000
     22 C20          4.1450    -0.1380    -1.3910 ca         1 CC2      -0.100000
     23 C21          5.5000    -0.0840    -1.5810 ca         1 CC2      -0.111000
     24 C22          6.3600     0.2280    -0.5110 ca         1 CC2      -0.109000
     25 C23          5.8400     0.4820     0.7290 ca         1 CC2      -0.099000
     26 HO1         -1.3660     2.4400    -1.2600 ho         1 CC2       0.478000
     27 H2          -4.4050    -2.1510     0.7190 ha         1 CC2       0.141000
     28 H5          -3.2380     2.3930    -0.7950 ha         1 CC2       0.107000
     29 H11         -6.8770     0.1580     1.5300 hc         1 CC2       0.050700
     30 H11A        -7.2230    -0.3310    -0.1170 hc         1 CC2       0.050700
     31 H11B        -6.6350    -1.5200     1.0440 hc         1 CC2       0.050700
     32 H12         -6.2230     2.4330     0.8150 hc         1 CC2       0.045367
     33 H12A        -5.4140     3.1260    -0.5870 hc         1 CC2       0.045367
     34 H12B        -6.6690     1.9080    -0.7960 hc         1 CC2       0.045367
     35 H13          1.5790    -1.2060    -1.4990 hc         1 CC2       0.066700
     36 H13A         1.3560     0.4850    -1.8250 hc         1 CC2       0.066700
     37 H17          4.5740     0.9460     3.0510 ha         1 CC2       0.111000
     38 H18          2.1370     0.8660     3.4070 ha         1 CC2       0.110000
     39 H19          0.6230     0.3170     1.5560 ha         1 CC2       0.109000
     40 H20          3.5100    -0.3780    -2.2330 ha         1 CC2       0.111000
     41 H21          5.9140    -0.2830    -2.5620 ha         1 CC2       0.110000
     42 H22          7.4300     0.2670    -0.6720 ha         1 CC2       0.111000
     43 H23          6.4940     0.7220     1.5580 ha         1 CC2       0.111000
@<TRIPOS>BOND
     1     1     3 ar  
     2     1     8 ar  
     3     1    13 1   
     4     2    12 1   
     5     2    26 1   
     6     3     5 ar  
     7     3    27 1   
     8     4     5 1   
     9     4    10 1   
    10     5     6 ar  
    11     6     7 ar  
    12     6    12 1   
    13     7     8 ar  
    14     7    28 1   
    15     8    14 1   
    16     9    10 2   
    17    10    11 1   
    18    11    12 2   
    19    11    15 1   
    20    13    29 1   
    21    13    30 1   
    22    13    31 1   
    23    14    32 1   
    24    14    33 1   
    25    14    34 1   
    26    15    16 1   
    27    15    35 1   
    28    15    36 1   
    29    16    17 ar  
    30    16    21 ar  
    31    17    18 ar  
    32    17    22 ar  
    33    18    19 ar  
    34    18    25 ar  
    35    19    20 ar  
    36    19    37 1   
    37    20    21 ar  
    38    20    38 1   
    39    21    39 1   
    40    22    23 ar  
    41    22    40 1   
    42    23    24 ar  
    43    23    41 1   
    44    24    25 ar  
    45    24    42 1   
    46    25    43 1   
@<TRIPOS>SUBSTRUCTURE
     1 CC2         1 TEMP              0 ****  ****    0 ROOT
