@<TRIPOS>MOLECULE
CC2
   43    46     1     0     0
SMALL
No Charge or Current Charge


@<TRIPOS>ATOM
      1 C1          -5.1860    -0.1540     0.3540 ca         1 CC2      -0.018300
      2 O1          -0.7430     1.8180    -1.2370 oh         1 CC2      -0.510100
      3 C2          -4.2000    -1.1540     0.4190 ca         1 CC2      -0.133000
      4 O2          -1.9540    -1.8860     0.1130 os         1 CC2      -0.335200
      5 C3          -2.8810    -0.8830     0.0330 ca         1 CC2       0.193100
      6 C4          -2.5130     0.3880    -0.4250 ca         1 CC2      -0.204800
      7 C5          -3.5010     1.4000    -0.4920 ca         1 CC2      -0.063000
      8 C6          -4.8320     1.1360    -0.1060 ca         1 CC2      -0.099300
      9 O7           0.1240    -2.7100    -0.1160 o          1 CC2      -0.481000
     10 C8          -0.6350    -1.7580    -0.2310 c          1 CC2       0.685300
     11 C9          -0.1980    -0.4270    -0.7270 cc         1 CC2      -0.292400
     12 C10         -1.1140     0.5950    -0.8100 cd         1 CC2       0.240900
     13 C11         -6.6140    -0.4800     0.7820 c3         1 CC2      -0.055800
     14 C12         -5.8700     2.2520    -0.1930 c3         1 CC2      -0.045800
     15 C13          1.2750    -0.3030    -1.0910 c3         1 CC2       0.038100
     16 C14          2.2240     0.0500     0.0680 ca         1 CC2      -0.048300
     17 C15          3.6330     0.1140    -0.1320 ca         1 CC2      -0.029000
     18 C16          4.4840     0.4340     0.9570 ca         1 CC2      -0.033000
     19 C17          3.9440     0.6930     2.2270 ca         1 CC2      -0.105000
     20 C18          2.5590     0.6400     2.4250 ca         1 CC2      -0.102000
     21 C19          1.7070     0.3220     1.3580 ca         1 CC2      -0.104000
     22 C20          4.2200    -0.1330    -1.3980 ca         1 CC2      -0.100000
     23 C21          5.6130    -0.0650    -1.5680 ca         1 CC2      -0.111000
     24 C22          6.4430     0.2490    -0.4830 ca         1 CC2      -0.109000
     25 C23          5.8790     0.4990     0.7770 ca         1 CC2      -0.099000
     26 HO1         -1.5400     2.3810    -1.2030 ho         1 CC2       0.478000
     27 H2          -4.4530    -2.1510     0.7700 ha         1 CC2       0.141000
     28 H5          -3.2540     2.3980    -0.8430 ha         1 CC2       0.107000
     29 H11         -6.9320     0.1570     1.6150 hc         1 CC2       0.050700
     30 H11A        -7.3180    -0.3310    -0.0460 hc         1 CC2       0.050700
     31 H11B        -6.7140    -1.5210     1.1100 hc         1 CC2       0.050700
     32 H12         -6.3030     2.4670     0.7920 hc         1 CC2       0.045367
     33 H12A        -5.4370     3.1870    -0.5680 hc         1 CC2       0.045367
     34 H12B        -6.6880     1.9790    -0.8690 hc         1 CC2       0.045367
     35 H13          1.6090    -1.2370    -1.5610 hc         1 CC2       0.066700
     36 H13A         1.3870     0.4530    -1.8770 hc         1 CC2       0.066700
     37 H17          4.5960     0.9400     3.0620 ha         1 CC2       0.111000
     38 H18          2.1430     0.8450     3.4090 ha         1 CC2       0.110000
     39 H19          0.6390     0.2940     1.5500 ha         1 CC2       0.109000
     40 H20          3.6140    -0.3760    -2.2660 ha         1 CC2       0.111000
     41 H21          6.0500    -0.2570    -2.5460 ha         1 CC2       0.110000
     42 H22          7.5210     0.3000    -0.6170 ha         1 CC2       0.111000
     43 H23          6.5290     0.7450     1.6140 ha         1 CC2       0.111000
@<TRIPOS>BOND
     1     1     3 ar  
     2     1     8 ar  
     3     1    13 1   
     4     2    12 1   
     5     2    26 1   
     6     3     5 ar  
     7     3    27 1   
     8     4     5 1   
     9     4    10 1   
    10     5     6 ar  
    11     6     7 ar  
    12     6    12 1   
    13     7     8 ar  
    14     7    28 1   
    15     8    14 1   
    16     9    10 2   
    17    10    11 1   
    18    11    12 2   
    19    11    15 1   
    20    13    29 1   
    21    13    30 1   
    22    13    31 1   
    23    14    32 1   
    24    14    33 1   
    25    14    34 1   
    26    15    16 1   
    27    15    35 1   
    28    15    36 1   
    29    16    17 ar  
    30    16    21 ar  
    31    17    18 ar  
    32    17    22 ar  
    33    18    19 ar  
    34    18    25 ar  
    35    19    20 ar  
    36    19    37 1   
    37    20    21 ar  
    38    20    38 1   
    39    21    39 1   
    40    22    23 ar  
    41    22    40 1   
    42    23    24 ar  
    43    23    41 1   
    44    24    25 ar  
    45    24    42 1   
    46    25    43 1   
@<TRIPOS>SUBSTRUCTURE
     1 CC2         1 TEMP              0 ****  ****    0 ROOT
