@<TRIPOS>MOLECULE
CC3
   48    51     1     0     0
SMALL
No Charge or Current Charge


@<TRIPOS>ATOM
      1 O27          2.9270    -4.0690     7.1360 o          1 CC3      -0.581100
      2 C26          3.9860    -4.2220     7.7340 c          1 CC3       0.638100
      3 C28          4.8930    -5.4140     7.4810 cx         1 CC3      -0.245700
      4 C30          4.9100    -6.0510     6.1040 cx         1 CC3      -0.097900
      5 C29          4.2740    -6.7810     7.2650 cx         1 CC3      -0.097900
      6 N25          4.4700    -3.3570     8.7060 ns         1 CC3      -0.148000
      7 C21          3.9980    -2.1050     9.1850 ca         1 CC3       0.006000
      8 C20          2.9860    -1.3640     8.5400 ca         1 CC3      -0.148000
      9 C22          4.5990    -1.5720    10.3390 ca         1 CC3      -0.187000
     10 C23          4.1870    -0.3320    10.8510 ca         1 CC3      -0.058000
     11 C24          3.1810     0.3970    10.1960 ca         1 CC3      -0.190000
     12 C19          2.5890    -0.1030     9.0270 ca         1 CC3       0.337000
     13 N18          1.6120     0.6730     8.3920 nu         1 CC3      -0.931900
     14 C16          1.1930     0.8060     7.0750 ca         1 CC3       0.423900
     15 N15          0.1710     1.6540     6.8750 nb         1 CC3      -0.271000
     16 C14         -0.2420     1.8010     5.6010 ca         1 CC3       0.175900
     17 C13          0.3700     1.1020     4.5480 ca         1 CC3      -0.337000
     18 N17          1.8430     0.1060     6.1360 nb         1 CC3      -0.295000
     19 C12          1.4320     0.2580     4.8730 ca         1 CC3       0.422900
     20 N11          2.0560    -0.4970     3.8910 nu         1 CC3      -0.943900
     21 C1           3.1380    -1.3920     3.9060 ca         1 CC3       0.310000
     22 C6           4.2320    -1.2400     4.7850 ca         1 CC3      -0.065000
     23 C5           5.3040    -2.1620     4.7860 ca         1 CC3      -0.173300
     24 C7           6.4930    -1.9860     5.7370 c3         1 CC3       0.354300
     25 F10          6.9630    -3.1700     6.1900 f          1 CC3      -0.114667
     26 F9           7.5230    -1.3610     5.1240 f          1 CC3      -0.114667
     27 F8           6.1820    -1.2520     6.8300 f          1 CC3      -0.114667
     28 C4           5.2790    -3.2340     3.8700 ca         1 CC3      -0.090000
     29 C3           4.2030    -3.3820     2.9800 ca         1 CC3      -0.092000
     30 C2           3.1400    -2.4630     2.9970 ca         1 CC3      -0.131000
     31 H28          5.8430    -5.3920     8.0090 hc         1 CC3       0.087700
     32 H301         5.8610    -6.4230     5.7300 hc         1 CC3       0.081200
     33 H302         4.2490    -5.6510     5.3380 hc         1 CC3       0.081200
     34 H291         3.1890    -6.8660     7.2740 hc         1 CC3       0.081200
     35 H292         4.7980    -7.6460     7.6670 hc         1 CC3       0.081200
     36 HN25         5.3350    -3.6590     9.1330 hn         1 CC3       0.152000
     37 H20          2.5050    -1.7590     7.6580 ha         1 CC3       0.169000
     38 H22          5.3870    -2.1240    10.8480 ha         1 CC3       0.112000
     39 H23          4.6520     0.0680    11.7500 ha         1 CC3       0.113000
     40 H24          2.8780     1.3620    10.5910 ha         1 CC3       0.114000
     41 HN18         1.2000     1.3830     8.9960 hn         1 CC3       0.512000
     42 H14         -1.0740     2.4820     5.4250 h4         1 CC3       0.021100
     43 H13          0.0270     1.2200     3.5250 ha         1 CC3       0.132000
     44 HN11         1.5330    -0.5050     3.0170 hn         1 CC3       0.501000
     45 H6           4.2580    -0.3890     5.4570 ha         1 CC3       0.159000
     46 H4           6.0970    -3.9510     3.8390 ha         1 CC3       0.127000
     47 H3           4.1930    -4.2110     2.2740 ha         1 CC3       0.120000
     48 H2           2.3110    -2.5920     2.3060 ha         1 CC3       0.116000
@<TRIPOS>BOND
     1     1     2 2   
     2     2     3 1   
     3     2     6 1   
     4     3     4 1   
     5     3     5 1   
     6     3    31 1   
     7     4     5 1   
     8     4    32 1   
     9     4    33 1   
    10     5    34 1   
    11     5    35 1   
    12     6     7 1   
    13     6    36 1   
    14     7     8 ar  
    15     7     9 ar  
    16     8    12 ar  
    17     8    37 1   
    18     9    10 ar  
    19     9    38 1   
    20    10    11 ar  
    21    10    39 1   
    22    11    12 ar  
    23    11    40 1   
    24    12    13 1   
    25    13    14 1   
    26    13    41 1   
    27    14    15 ar  
    28    14    18 ar  
    29    15    16 ar  
    30    16    17 ar  
    31    16    42 1   
    32    17    19 ar  
    33    17    43 1   
    34    18    19 ar  
    35    19    20 1   
    36    20    21 1   
    37    20    44 1   
    38    21    22 ar  
    39    21    30 ar  
    40    22    23 ar  
    41    22    45 1   
    42    23    24 1   
    43    23    28 ar  
    44    24    25 1   
    45    24    26 1   
    46    24    27 1   
    47    28    29 ar  
    48    28    46 1   
    49    29    30 ar  
    50    29    47 1   
    51    30    48 1   
@<TRIPOS>SUBSTRUCTURE
     1 CC3         1 TEMP              0 ****  ****    0 ROOT
