@<TRIPOS>MOLECULE
CC3
   48    51     1     0     0
SMALL
abcg2


@<TRIPOS>ATOM
      1 O27          2.8780    -3.9840     7.2580 o          1 CC3      -0.581100
      2 C26          3.9980    -4.1400     7.7120 c          1 CC3       0.638100
      3 C28          4.8180    -5.3430     7.4110 cx         1 CC3      -0.245700
      4 C30          4.6660    -5.9720     6.0530 cx         1 CC3      -0.097900
      5 C29          4.0940    -6.6550     7.2400 cx         1 CC3      -0.097900
      6 N25          4.6080    -3.2530     8.5440 ns         1 CC3      -0.148000
      7 C21          4.0970    -2.0590     9.0650 ca         1 CC3       0.006000
      8 C20          3.1350    -1.3080     8.3950 ca         1 CC3      -0.148000
      9 C22          4.6080    -1.6210    10.2860 ca         1 CC3      -0.187000
     10 C23          4.1410    -0.4380    10.8340 ca         1 CC3      -0.058000
     11 C24          3.1810     0.3170    10.1830 ca         1 CC3      -0.190000
     12 C19          2.6780    -0.1130     8.9520 ca         1 CC3       0.337000
     13 N18          1.6960     0.6790     8.3610 nu         1 CC3      -0.931900
     14 C16          1.2680     0.7490     7.0700 ca         1 CC3       0.423900
     15 N15          0.2450     1.5810     6.8680 nb         1 CC3      -0.271000
     16 C14         -0.1850     1.6580     5.6120 ca         1 CC3       0.175900
     17 C13          0.3600     0.9480     4.5690 ca         1 CC3      -0.337000
     18 N17          1.8840     0.0230     6.1460 nb         1 CC3      -0.295000
     19 C12          1.4420     0.1140     4.9000 ca         1 CC3       0.422900
     20 N11          2.0430    -0.6200     3.9280 nu         1 CC3      -0.943900
     21 C1           3.1480    -1.4700     4.0110 ca         1 CC3       0.310000
     22 C6           4.2090    -1.2630     4.8940 ca         1 CC3      -0.065000
     23 C5           5.2960    -2.1230     4.8700 ca         1 CC3      -0.173300
     24 C7           6.4730    -1.8680     5.7600 c3         1 CC3       0.354300
     25 F10          6.9600    -2.9980     6.2910 f          1 CC3      -0.114667
     26 F9           7.4870    -1.3080     5.0780 f          1 CC3      -0.114667
     27 F8           6.1940    -1.0450     6.7740 f          1 CC3      -0.114667
     28 C4           5.3580    -3.1840     3.9750 ca         1 CC3      -0.090000
     29 C3           4.3070    -3.3780     3.0950 ca         1 CC3      -0.092000
     30 C2           3.2100    -2.5330     3.1120 ca         1 CC3      -0.131000
     31 H28          5.8030    -5.3910     7.8610 hc         1 CC3       0.087700
     32 H301         5.5640    -6.3720     5.6010 hc         1 CC3       0.081200
     33 H302         3.9870    -5.4890     5.3630 hc         1 CC3       0.081200
     34 H291         3.0190    -6.6450     7.3640 hc         1 CC3       0.081200
     35 H292         4.5880    -7.5370     7.6240 hc         1 CC3       0.081200
     36 HN25         5.4960    -3.5380     8.9270 hn         1 CC3       0.152000
     37 H20          2.7590    -1.6290     7.4410 ha         1 CC3       0.169000
     38 H22          5.3570    -2.2060    10.8050 ha         1 CC3       0.112000
     39 H23          4.5320    -0.0980    11.7840 ha         1 CC3       0.113000
     40 H24          2.8270     1.2420    10.6230 ha         1 CC3       0.114000
     41 HN18         1.2520     1.3510     8.9670 hn         1 CC3       0.512000
     42 H14         -1.0180     2.3290     5.4330 h4         1 CC3       0.021100
     43 H13         -0.0170     1.0350     3.5610 ha         1 CC3       0.132000
     44 HN11         1.5720    -0.6180     3.0370 hn         1 CC3       0.501000
     45 H6           4.1750    -0.4380     5.5870 ha         1 CC3       0.159000
     46 H4           6.2050    -3.8560     3.9590 ha         1 CC3       0.127000
     47 H3           4.3370    -4.1990     2.3920 ha         1 CC3       0.120000
     48 H2           2.3930    -2.7010     2.4210 ha         1 CC3       0.116000
@<TRIPOS>BOND
     1     1     2 2   
     2     2     3 1   
     3     2     6 1   
     4     3     4 1   
     5     3     5 1   
     6     3    31 1   
     7     4     5 1   
     8     4    32 1   
     9     4    33 1   
    10     5    34 1   
    11     5    35 1   
    12     6     7 1   
    13     6    36 1   
    14     7     8 ar  
    15     7     9 ar  
    16     8    12 ar  
    17     8    37 1   
    18     9    10 ar  
    19     9    38 1   
    20    10    11 ar  
    21    10    39 1   
    22    11    12 ar  
    23    11    40 1   
    24    12    13 1   
    25    13    14 1   
    26    13    41 1   
    27    14    15 ar  
    28    14    18 ar  
    29    15    16 ar  
    30    16    17 ar  
    31    16    42 1   
    32    17    19 ar  
    33    17    43 1   
    34    18    19 ar  
    35    19    20 1   
    36    20    21 1   
    37    20    44 1   
    38    21    22 ar  
    39    21    30 ar  
    40    22    23 ar  
    41    22    45 1   
    42    23    24 1   
    43    23    28 ar  
    44    24    25 1   
    45    24    26 1   
    46    24    27 1   
    47    28    29 ar  
    48    28    46 1   
    49    29    30 ar  
    50    29    47 1   
    51    30    48 1   
@<TRIPOS>SUBSTRUCTURE
     1 CC3         1 TEMP              0 ****  ****    0 ROOT
