@<TRIPOS>MOLECULE
CC4
   12    11     1     0     0
SMALL
No Charge or Current Charge


@<TRIPOS>ATOM
      1 C4          -2.3370     0.1180    -0.2920 c          1 CC4       0.713200
      2 O1          -3.2080    -0.7300    -0.4290 o          1 CC4      -0.723500
      3 C2          -0.9290    -0.3360     0.0350 ce         1 CC4      -0.205400
      4 C3          -0.6120    -1.6510     0.2080 c2         1 CC4      -0.321000
      5 C1           0.1270     0.7630     0.1680 c3         1 CC4       0.250800
      6 SE           1.7690     0.2970    -0.5890 sh         1 CC4      -0.660800
      7 H31C         0.4010    -1.9740     0.4510 ha         1 CC4       0.153500
      8 H32C        -1.3570    -2.4420     0.1160 ha         1 CC4       0.153500
      9 H11C        -0.2010     1.6910    -0.3180 h1         1 CC4       0.065700
     10 H12C         0.2800     0.9830     1.2330 h1         1 CC4       0.065700
     11 HSE          2.3970     1.4580    -0.2710 hs         1 CC4       0.231800
     12 OXT         -2.5710     1.3130    -0.3890 o          1 CC4      -0.723500
@<TRIPOS>BOND
     1     1     2 1   
     2     1     3 1   
     3     1    12 1   
     4     3     4 2   
     5     3     5 1   
     6     4     7 1   
     7     4     8 1   
     8     5     6 1   
     9     5     9 1   
    10     5    10 1   
    11     6    11 1   
@<TRIPOS>SUBSTRUCTURE
     1 CC4         1 TEMP              0 ****  ****    0 ROOT
