@<TRIPOS>MOLECULE
CC4
   12    11     1     0     0
SMALL
bcc


@<TRIPOS>ATOM
      1 C4          -2.3740     0.0980    -0.0440 c          1 CC4       0.923800
      2 O1          -3.2440    -0.7900    -0.0680 o          1 CC4      -0.828800
      3 C2          -0.9060    -0.3500    -0.0100 ce         1 CC4      -0.205400
      4 C3          -0.6060    -1.6460     0.0100 c2         1 CC4      -0.221000
      5 C1           0.0880     0.7720    -0.0010 c3         1 CC4       0.202900
      6 SE           1.9660     0.1710     0.0390 sh         1 CC4      -0.612900
      7 H31C         0.4030    -2.0400     0.0360 ha         1 CC4       0.103500
      8 H32C        -1.3950    -2.3850     0.0010 ha         1 CC4       0.103500
      9 H11C        -0.0450     1.3980    -0.8840 h1         1 CC4       0.065700
     10 H12C        -0.0770     1.4120     0.8660 h1         1 CC4       0.065700
     11 HSE          2.5120     1.5190     0.0210 hs         1 CC4       0.231800
     12 OXT         -2.5620     1.3310    -0.0420 o          1 CC4      -0.828800
@<TRIPOS>BOND
     1     1     2 1   
     2     1     3 1   
     3     1    12 1   
     4     3     4 2   
     5     3     5 1   
     6     4     7 1   
     7     4     8 1   
     8     5     6 1   
     9     5     9 1   
    10     5    10 1   
    11     6    11 1   
@<TRIPOS>SUBSTRUCTURE
     1 CC4         1 TEMP              0 ****  ****    0 ROOT
