@<TRIPOS>MOLECULE
CC5
   28    30     1     0     0
SMALL
No Charge or Current Charge


@<TRIPOS>ATOM
      1 N1           3.9140     0.5990     0.9290 nb         1 CC5      -0.304000
      2 C2           2.9420     1.3650     1.4820 ca         1 CC5       0.183900
      3 N3           1.6110     1.2890     1.2360 nb         1 CC5      -0.222000
      4 C4           1.2350     0.3470     0.3490 ca         1 CC5       0.123500
      5 N9           0.0120    -0.0120    -0.1420 na         1 CC5      -0.312300
      6 C8           0.2170    -1.0550    -1.0530 cc         1 CC5       0.409700
      7 N7           1.5230    -1.3690    -1.1560 nd         1 CC5      -0.555100
      8 C5           2.1380    -0.4800    -0.2690 ca         1 CC5      -0.100600
      9 C6           3.5040    -0.3300     0.0510 ca         1 CC5       0.452900
     10 N6           4.4770    -1.0960    -0.5090 nv         1 CC5      -1.064900
     11 C1          -1.2740     0.6050     0.1950 c5         1 CC5       0.316300
     12 C7          -2.3980     0.5900    -0.9110 c5         1 CC5       0.143300
     13 C3          -3.2660    -0.6130    -0.4420 c5         1 CC5       0.088300
     14 C9          -3.1990    -0.4050     1.0960 c5         1 CC5       0.112600
     15 O4          -1.8130    -0.0940     1.3470 os         1 CC5      -0.437000
     16 O2          -3.2210     1.7660    -0.9110 oh         1 CC5      -0.707000
     17 O3          -4.6010    -0.5220    -0.9750 oh         1 CC5      -0.711000
     18 H2           3.2630     2.1220     2.1960 h5         1 CC5       0.047100
     19 H8          -0.5930    -1.5310    -1.5920 h5         1 CC5       0.070800
     20 H6N1         5.4330    -0.7520    -0.4740 hn         1 CC5       0.507000
     21 H6N2         4.2190    -1.6430    -1.3270 hn         1 CC5       0.507000
     22 H1          -1.0460     1.6460     0.4610 h2         1 CC5       0.128700
     23 H5          -1.9790     0.4190    -1.9130 h1         1 CC5       0.086700
     24 H3          -2.7960    -1.5670    -0.7230 h1         1 CC5       0.056700
     25 H4'1        -3.4870    -1.3010     1.6620 h1         1 CC5       0.063200
     26 H4'2        -3.8220     0.4380     1.4270 h1         1 CC5       0.063200
     27 HA          -4.1300     1.3840    -1.0280 ho         1 CC5       0.532000
     28 HB          -5.0580    -1.3770    -0.7820 ho         1 CC5       0.520000
@<TRIPOS>BOND
     1     1     2 ar  
     2     1     9 ar  
     3     2     3 ar  
     4     2    18 1   
     5     3     4 ar  
     6     4     5 1   
     7     4     8 ar  
     8     5     6 1   
     9     5    11 1   
    10     6     7 2   
    11     6    19 1   
    12     7     8 1   
    13     8     9 ar  
    14     9    10 1   
    15    10    20 1   
    16    10    21 1   
    17    11    12 1   
    18    11    15 1   
    19    11    22 1   
    20    12    13 1   
    21    12    16 1   
    22    12    23 1   
    23    13    14 1   
    24    13    17 1   
    25    13    24 1   
    26    14    15 1   
    27    14    25 1   
    28    14    26 1   
    29    16    27 1   
    30    17    28 1   
@<TRIPOS>SUBSTRUCTURE
     1 CC5         1 TEMP              0 ****  ****    0 ROOT
