@<TRIPOS>MOLECULE
CC5
   28    30     1     0     0
SMALL
abcg2


@<TRIPOS>ATOM
      1 N1           3.5260     1.0200    -0.2210 nb         1 CC5      -0.304000
      2 C2           2.5600     1.8610     0.1380 ca         1 CC5       0.183900
      3 N3           1.3010     1.5890     0.4340 nb         1 CC5      -0.222000
      4 C4           1.0480     0.2840     0.3420 ca         1 CC5       0.123500
      5 N9          -0.1290    -0.3630     0.5740 na         1 CC5      -0.312300
      6 C8           0.1130    -1.6910     0.3530 cc         1 CC5       0.409700
      7 N7           1.3410    -1.9390    -0.0010 nd         1 CC5      -0.555100
      8 C5           1.9460    -0.7100    -0.0150 ca         1 CC5      -0.100600
      9 C6           3.2560    -0.2870    -0.3100 ca         1 CC5       0.452900
     10 N6           4.2240    -1.1320    -0.6660 nv         1 CC5      -1.064900
     11 C1          -1.3830     0.2760     0.9650 c5         1 CC5       0.316300
     12 C7          -2.0470     0.9590    -0.2280 c5         1 CC5       0.143300
     13 C3          -2.8270    -0.2120    -0.8230 c5         1 CC5       0.088300
     14 C9          -3.2940    -0.9320     0.4440 c5         1 CC5       0.112600
     15 O4          -2.2730    -0.6950     1.4150 os         1 CC5      -0.437000
     16 O2          -2.9020     1.9430     0.2860 oh         1 CC5      -0.707000
     17 O3          -3.8510     0.2650    -1.6470 oh         1 CC5      -0.711000
     18 H2           2.8480     2.9060     0.1910 h5         1 CC5       0.047100
     19 H8          -0.6530    -2.4410     0.4760 h5         1 CC5       0.070800
     20 H6N1         5.1400    -0.7860    -0.8950 hn         1 CC5       0.507000
     21 H6N2         4.0430    -2.1140    -0.7730 hn         1 CC5       0.507000
     22 H1          -1.1530     0.9860     1.7640 h2         1 CC5       0.128700
     23 H5          -1.3120     1.3800    -0.9250 h1         1 CC5       0.086700
     24 H3          -2.1330    -0.8540    -1.3810 h1         1 CC5       0.056700
     25 H4'1        -3.4100    -2.0080     0.3060 h1         1 CC5       0.063200
     26 H4'2        -4.2460    -0.5220     0.7940 h1         1 CC5       0.063200
     27 HA          -3.5870     2.1230    -0.3680 ho         1 CC5       0.532000
     28 HB          -4.3430    -0.4800    -2.0050 ho         1 CC5       0.520000
@<TRIPOS>BOND
     1     1     2 ar  
     2     1     9 ar  
     3     2     3 ar  
     4     2    18 1   
     5     3     4 ar  
     6     4     5 1   
     7     4     8 ar  
     8     5     6 1   
     9     5    11 1   
    10     6     7 2   
    11     6    19 1   
    12     7     8 1   
    13     8     9 ar  
    14     9    10 1   
    15    10    20 1   
    16    10    21 1   
    17    11    12 1   
    18    11    15 1   
    19    11    22 1   
    20    12    13 1   
    21    12    16 1   
    22    12    23 1   
    23    13    14 1   
    24    13    17 1   
    25    13    24 1   
    26    14    15 1   
    27    14    25 1   
    28    14    26 1   
    29    16    27 1   
    30    17    28 1   
@<TRIPOS>SUBSTRUCTURE
     1 CC5         1 TEMP              0 ****  ****    0 ROOT
