@<TRIPOS>MOLECULE
CC6
   31    33     1     0     0
SMALL
No Charge or Current Charge


@<TRIPOS>ATOM
      1 OAO         -1.3120    -2.7800    -0.2680 oh         1 CC6      -0.511100
      2 CAI         -0.5390    -1.6590    -0.1730 cc         1 CC6      -0.048100
      3 CAH          0.9240    -1.9490    -0.2210 c          1 CC6       0.576900
      4 OAN          1.3270    -3.1020    -0.3330 o          1 CC6      -0.540100
      5 CAE          1.8340    -0.7610    -0.1140 ca         1 CC6      -0.307600
      6 CAD          3.2440    -0.8530    -0.0870 ca         1 CC6       0.270100
      7 OAL          3.8900    -2.0470    -0.1550 oh         1 CC6      -0.488100
      8 CAC          4.0240     0.3050     0.0180 ca         1 CC6      -0.307000
      9 CAB          3.4170     1.5570     0.0950 ca         1 CC6       0.252100
     10 OAM          4.1870     2.6710     0.1950 oh         1 CC6      -0.518100
     11 CAA          2.0270     1.6610     0.0680 ca         1 CC6      -0.301000
     12 CAF          1.2420     0.5070    -0.0350 ca         1 CC6       0.244100
     13 OAG         -0.1210     0.6660    -0.0680 os         1 CC6      -0.214200
     14 CAJ         -1.0300    -0.3600    -0.1150 cd         1 CC6       0.097900
     15 CAK         -2.4470     0.0840     0.0810 ca         1 CC6      -0.137800
     16 CAP         -3.4030    -0.7970     0.6470 ca         1 CC6      -0.029000
     17 CAT         -4.7380    -0.4020     0.8400 ca         1 CC6      -0.156000
     18 CAS         -5.1560     0.8820     0.4730 ca         1 CC6      -0.057000
     19 CAR         -4.2300     1.7740    -0.0820 ca         1 CC6      -0.158000
     20 CAQ         -2.8930     1.3900    -0.2730 ca         1 CC6       0.182100
     21 OAU         -2.0580     2.3020    -0.8460 oh         1 CC6      -0.534100
     22 H1          -0.6920    -3.5460    -0.3350 ho         1 CC6       0.490000
     23 H2           4.8520    -1.8720    -0.1190 ho         1 CC6       0.473000
     24 H3           5.1080     0.2430     0.0400 ha         1 CC6       0.138000
     25 H4           3.5900     3.4470     0.2390 ho         1 CC6       0.478000
     26 H5           1.5430     2.6320     0.1270 ha         1 CC6       0.142000
     27 H6          -3.1230    -1.7890     0.9840 ha         1 CC6       0.122000
     28 H7          -5.4490    -1.0970     1.2830 ha         1 CC6       0.120000
     29 H8          -6.1910     1.1870     0.6220 ha         1 CC6       0.116000
     30 H9          -4.5500     2.7720    -0.3700 ha         1 CC6       0.130000
     31 H10         -1.1550     1.9170    -0.8130 ho         1 CC6       0.476000
@<TRIPOS>BOND
     1     1     2 1   
     2     1    22 1   
     3     2     3 1   
     4     2    14 2   
     5     3     4 2   
     6     3     5 1   
     7     5     6 ar  
     8     5    12 ar  
     9     6     7 1   
    10     6     8 ar  
    11     7    23 1   
    12     8     9 ar  
    13     8    24 1   
    14     9    10 1   
    15     9    11 ar  
    16    10    25 1   
    17    11    12 ar  
    18    11    26 1   
    19    12    13 1   
    20    13    14 1   
    21    14    15 1   
    22    15    16 ar  
    23    15    20 ar  
    24    16    17 ar  
    25    16    27 1   
    26    17    18 ar  
    27    17    28 1   
    28    18    19 ar  
    29    18    29 1   
    30    19    20 ar  
    31    19    30 1   
    32    20    21 1   
    33    21    31 1   
@<TRIPOS>SUBSTRUCTURE
     1 CC6         1 TEMP              0 ****  ****    0 ROOT
