@<TRIPOS>MOLECULE
CC6
   31    33     1     0     0
SMALL
abcg2


@<TRIPOS>ATOM
      1 OAO         -1.3770    -2.5800    -0.4030 oh         1 CC6      -0.511100
      2 CAI         -0.5340    -1.5560    -0.2190 cc         1 CC6      -0.048100
      3 CAH          0.8970    -1.8600    -0.2930 c          1 CC6       0.576900
      4 OAN          1.2300    -3.0210    -0.5130 o          1 CC6      -0.540100
      5 CAE          1.7780    -0.7290    -0.1040 ca         1 CC6      -0.307600
      6 CAD          3.1940    -0.8130    -0.1290 ca         1 CC6       0.270100
      7 OAL          3.7440    -2.0130    -0.3190 oh         1 CC6      -0.488100
      8 CAC          3.9700     0.3150     0.0420 ca         1 CC6      -0.307000
      9 CAB          3.3690     1.5600     0.2460 ca         1 CC6       0.252100
     10 OAM          4.1860     2.6040     0.4050 oh         1 CC6      -0.518100
     11 CAA          1.9890     1.6850     0.2810 ca         1 CC6      -0.301000
     12 CAF          1.2240     0.5420     0.1090 ca         1 CC6       0.244100
     13 OAG         -0.1050     0.7220     0.1660 os         1 CC6      -0.214200
     14 CAJ         -0.9780    -0.3080     0.0170 cd         1 CC6       0.097900
     15 CAK         -2.3820     0.0940     0.1470 ca         1 CC6      -0.137800
     16 CAP         -3.1930    -0.5530     1.0820 ca         1 CC6      -0.029000
     17 CAT         -4.5160    -0.1920     1.2600 ca         1 CC6      -0.156000
     18 CAS         -5.0440     0.8400     0.4910 ca         1 CC6      -0.057000
     19 CAR         -4.2620     1.4920    -0.4450 ca         1 CC6      -0.158000
     20 CAQ         -2.9300     1.1250    -0.6300 ca         1 CC6       0.182100
     21 OAU         -2.2510     1.7950    -1.5790 oh         1 CC6      -0.534100
     22 H1          -0.8340    -3.3720    -0.5450 ho         1 CC6       0.490000
     23 H2           4.7060    -1.9420    -0.3080 ho         1 CC6       0.473000
     24 H3           5.0520     0.2430     0.0210 ha         1 CC6       0.138000
     25 H4           3.6830     3.4180     0.5300 ho         1 CC6       0.478000
     26 H5           1.5070     2.6410     0.4470 ha         1 CC6       0.142000
     27 H6          -2.7660    -1.3430     1.6860 ha         1 CC6       0.122000
     28 H7          -5.1260    -0.7000     1.9930 ha         1 CC6       0.120000
     29 H8          -6.0760     1.1390     0.6190 ha         1 CC6       0.116000
     30 H9          -4.6770     2.2900    -1.0480 ha         1 CC6       0.130000
     31 H10         -1.3550     1.4620    -1.6990 ho         1 CC6       0.476000
@<TRIPOS>BOND
     1     1     2 1   
     2     1    22 1   
     3     2     3 1   
     4     2    14 2   
     5     3     4 2   
     6     3     5 1   
     7     5     6 ar  
     8     5    12 ar  
     9     6     7 1   
    10     6     8 ar  
    11     7    23 1   
    12     8     9 ar  
    13     8    24 1   
    14     9    10 1   
    15     9    11 ar  
    16    10    25 1   
    17    11    12 ar  
    18    11    26 1   
    19    12    13 1   
    20    13    14 1   
    21    14    15 1   
    22    15    16 ar  
    23    15    20 ar  
    24    16    17 ar  
    25    16    27 1   
    26    17    18 ar  
    27    17    28 1   
    28    18    19 ar  
    29    18    29 1   
    30    19    20 ar  
    31    19    30 1   
    32    20    21 1   
    33    21    31 1   
@<TRIPOS>SUBSTRUCTURE
     1 CC6         1 TEMP              0 ****  ****    0 ROOT
