@<TRIPOS>MOLECULE
CC7
   32    34     1     0     0
SMALL
abcg2


@<TRIPOS>ATOM
      1 O2           8.0160    31.6630    14.6400 o          1 CC7      -0.552000
      2 C2           7.9250    30.6390    13.9590 c          1 CC7       0.717400
      3 N3           7.2580    29.5350    14.3700 nc         1 CC7      -0.762100
      4 C4           7.2250    28.4390    13.6210 cd         1 CC7       0.785500
      5 N4           6.5530    27.3780    14.0870 nv         1 CC7      -1.032200
      6 C5           7.8780    28.3630    12.3510 cd         1 CC7      -0.475600
      7 C6           8.5210    29.4720    11.9300 cc         1 CC7       0.030600
      8 N1           8.5490    30.6030    12.6860 n          1 CC7      -0.328000
      9 C1           9.2530    31.7900    12.2280 c5         1 CC7       0.270700
     10 O4           8.9630    31.9800    10.8340 os         1 CC7      -0.444000
     11 C8          10.1630    32.4100    10.2100 c5         1 CC7       0.070300
     12 C9          10.2110    32.1590     8.7190 c6         1 CC7       0.219600
     13 O5          11.5500    32.5460     8.2940 os         1 CC7      -0.609400
     14 P           12.8540    31.9930     9.0180 p5         1 CC7       1.360200
     15 O2P         12.8960    30.4280     8.7440 oh         1 CC7      -0.771400
     16 O1P         14.0490    32.7570     8.6520 o          1 CC7      -0.520000
     17 O3          12.5410    32.0160    10.5820 os         1 CC7      -0.524400
     18 C3          11.2180    31.5830    10.9270 c5         1 CC7       0.160300
     19 C7          10.8130    31.7380    12.3820 c5         1 CC7       0.149300
     20 O6          11.3270    32.9550    12.8800 oh         1 CC7      -0.685000
     21 HN4          6.4930    26.5240    13.5600 hn         1 CC7       0.506500
     22 HN4A         6.0900    27.4330    14.9800 hn         1 CC7       0.506500
     23 H5           7.8470    27.4680    11.7490 ha         1 CC7       0.205000
     24 H6           9.0190    29.5210    10.9730 h4         1 CC7       0.203000
     25 H1           8.8780    32.6240    12.8140 h2         1 CC7       0.122700
     26 H4          10.3410    33.4740    10.4000 h1         1 CC7       0.101700
     27 H7          10.0380    31.1090     8.4820 h1         1 CC7       0.072700
     28 H5'A         9.5260    32.7880     8.1580 h1         1 CC7       0.072700
     29 HO2P        13.0180    30.1830     7.8140 ho         1 CC7       0.489000
     30 H3          11.1050    30.5330    10.6470 h1         1 CC7       0.061700
     31 H2          11.1120    30.8910    13.0010 h1         1 CC7       0.075700
     32 HO2         11.1090    33.0190    13.8190 ho         1 CC7       0.524000
@<TRIPOS>BOND
     1     1     2 2   
     2     2     3 1   
     3     2     8 1   
     4     3     4 2   
     5     4     5 1   
     6     4     6 1   
     7     5    21 1   
     8     5    22 1   
     9     6     7 2   
    10     6    23 1   
    11     7     8 1   
    12     7    24 1   
    13     8     9 1   
    14     9    10 1   
    15     9    19 1   
    16     9    25 1   
    17    10    11 1   
    18    11    12 1   
    19    11    18 1   
    20    11    26 1   
    21    12    13 1   
    22    12    27 1   
    23    12    28 1   
    24    13    14 1   
    25    14    15 1   
    26    14    16 2   
    27    14    17 1   
    28    15    29 1   
    29    17    18 1   
    30    18    19 1   
    31    18    30 1   
    32    19    20 1   
    33    19    31 1   
    34    20    32 1   
@<TRIPOS>SUBSTRUCTURE
     1 CC7         1 TEMP              0 ****  ****    0 ROOT
