@<TRIPOS>MOLECULE
CC7
   32    34     1     0     0
SMALL
No Charge or Current Charge


@<TRIPOS>ATOM
      1 O2           7.4490    31.7160    14.3990 o          1 CC7      -0.552000
      2 C2           7.6230    30.6560    13.8210 c          1 CC7       0.717400
      3 N3           7.0520    29.5190    14.3240 nc         1 CC7      -0.762100
      4 C4           7.2390    28.3850    13.7390 cd         1 CC7       0.785500
      5 N4           6.6380    27.3570    14.3030 nv         1 CC7      -1.032200
      6 C5           8.0080    28.2060    12.5720 cd         1 CC7      -0.475600
      7 C6           8.5950    29.3230    12.0290 cc         1 CC7       0.030600
      8 N1           8.4000    30.5560    12.6490 n          1 CC7      -0.328000
      9 C1           9.0910    31.7770    12.1490 c5         1 CC7       0.270700
     10 O4           8.8920    31.9380    10.7150 os         1 CC7      -0.444000
     11 C8          10.1500    32.4290    10.2220 c5         1 CC7       0.070300
     12 C9          10.3470    32.4050     8.6950 c6         1 CC7       0.219600
     13 O5          11.7260    32.7510     8.4060 os         1 CC7      -0.609400
     14 P           12.9310    31.9770     9.1610 p5         1 CC7       1.360200
     15 O2P         12.6820    30.4770     8.7000 oh         1 CC7      -0.771400
     16 O1P         14.2940    32.4840     8.8640 o          1 CC7      -0.520000
     17 O3          12.4660    31.9900    10.7180 os         1 CC7      -0.524400
     18 C3          11.1270    31.4820    10.9320 c5         1 CC7       0.160300
     19 C7          10.6560    31.6460    12.4060 c5         1 CC7       0.149300
     20 O6          11.2160    32.8370    12.9890 oh         1 CC7      -0.685000
     21 HN4          6.4150    26.5900    13.6830 hn         1 CC7       0.506500
     22 HN4A         5.9120    27.6190    14.9560 hn         1 CC7       0.506500
     23 H5           8.1260    27.2270    12.1230 ha         1 CC7       0.205000
     24 H6           9.1960    29.3580    11.1250 h4         1 CC7       0.203000
     25 H1           8.6970    32.6520    12.6820 h2         1 CC7       0.122700
     26 H4          10.2810    33.4690    10.5570 h1         1 CC7       0.101700
     27 H7          10.1200    31.4080     8.2900 h1         1 CC7       0.072700
     28 H5'A         9.6800    33.1340     8.2150 h1         1 CC7       0.072700
     29 HO2P        13.2750    30.5070     7.9270 ho         1 CC7       0.489000
     30 H3          11.0430    30.4410    10.5900 h1         1 CC7       0.061700
     31 H2          10.9080    30.7620    13.0090 h1         1 CC7       0.075700
     32 HO2         12.1020    32.9390    12.5620 ho         1 CC7       0.524000
@<TRIPOS>BOND
     1     1     2 2   
     2     2     3 1   
     3     2     8 1   
     4     3     4 2   
     5     4     5 1   
     6     4     6 1   
     7     5    21 1   
     8     5    22 1   
     9     6     7 2   
    10     6    23 1   
    11     7     8 1   
    12     7    24 1   
    13     8     9 1   
    14     9    10 1   
    15     9    19 1   
    16     9    25 1   
    17    10    11 1   
    18    11    12 1   
    19    11    18 1   
    20    11    26 1   
    21    12    13 1   
    22    12    27 1   
    23    12    28 1   
    24    13    14 1   
    25    14    15 1   
    26    14    16 2   
    27    14    17 1   
    28    15    29 1   
    29    17    18 1   
    30    18    19 1   
    31    18    30 1   
    32    19    20 1   
    33    19    31 1   
    34    20    32 1   
@<TRIPOS>SUBSTRUCTURE
     1 CC7         1 TEMP              0 ****  ****    0 ROOT
