@<TRIPOS>MOLECULE
CC8
   14    13     1     0     0
SMALL
No Charge or Current Charge


@<TRIPOS>ATOM
      1 O1          -1.9690    -0.7200    -0.9440 o          1 CC8      -0.731500
      2 C4          -1.6290    -0.1780     0.0970 c          1 CC8       0.723000
      3 C2          -0.2220     0.4420     0.1790 c3         1 CC8      -0.196700
      4 C1           0.8410    -0.6620    -0.0040 c3         1 CC8       0.152600
      5 S            2.5770    -0.1030     0.3500 sh         1 CC8      -0.560800
      6 C3          -0.0610     1.6100    -0.8270 c3         1 CC8      -0.061100
      7 OXT         -2.3440    -0.1130     1.0860 o          1 CC8      -0.731500
      8 H2          -0.1000     0.8580     1.1870 hc         1 CC8       0.041700
      9 H11C         0.6120    -1.4950     0.6740 h1         1 CC8       0.059200
     10 H12C         0.8000    -1.0470    -1.0320 h1         1 CC8       0.059200
     11 H31C        -0.8530     2.3540    -0.6790 hc         1 CC8       0.019033
     12 H32C         0.9030     2.1150    -0.6950 hc         1 CC8       0.019033
     13 H33C        -0.1200     1.2490    -1.8610 hc         1 CC8       0.019033
     14 H            3.1670    -1.2970     0.0930 hs         1 CC8       0.188800
@<TRIPOS>BOND
     1     1     2 1   
     2     2     3 1   
     3     2     7 1   
     4     3     4 1   
     5     3     6 1   
     6     3     8 1   
     7     4     5 1   
     8     4     9 1   
     9     4    10 1   
    10     5    14 1   
    11     6    11 1   
    12     6    12 1   
    13     6    13 1   
@<TRIPOS>SUBSTRUCTURE
     1 CC8         1 TEMP              0 ****  ****    0 ROOT
