@<TRIPOS>MOLECULE
CC8
   14    13     1     0     0
SMALL
bcc


@<TRIPOS>ATOM
      1 O1          -1.7620    -1.4690    -0.0620 o          1 CC8      -0.836800
      2 C4          -1.6440    -0.2350     0.0720 c          1 CC8       0.933600
      3 C2          -0.2060     0.3380     0.2020 c3         1 CC8      -0.196700
      4 C1           0.8370    -0.6800    -0.2400 c3         1 CC8       0.104700
      5 S            2.5210    -0.0740     0.1560 sh         1 CC8      -0.512900
      6 C3          -0.0650     1.6660    -0.5360 c3         1 CC8      -0.061100
      7 OXT         -2.5750     0.5910     0.1390 o          1 CC8      -0.836800
      8 H2          -0.0500     0.5290     1.2730 hc         1 CC8       0.041700
      9 H11C         0.6860    -1.6260     0.2730 h1         1 CC8       0.059200
     10 H12C         0.7680    -0.8590    -1.3150 h1         1 CC8       0.059200
     11 H31C        -0.8130     2.3770    -0.1950 hc         1 CC8       0.019033
     12 H32C         0.9150     2.1190    -0.3810 hc         1 CC8       0.019033
     13 H33C        -0.1980     1.5310    -1.6120 hc         1 CC8       0.019033
     14 H            3.1880    -1.1930    -0.1510 hs         1 CC8       0.188800
@<TRIPOS>BOND
     1     1     2 1   
     2     2     3 1   
     3     2     7 1   
     4     3     4 1   
     5     3     6 1   
     6     3     8 1   
     7     4     5 1   
     8     4     9 1   
     9     4    10 1   
    10     5    14 1   
    11     6    11 1   
    12     6    12 1   
    13     6    13 1   
@<TRIPOS>SUBSTRUCTURE
     1 CC8         1 TEMP              0 ****  ****    0 ROOT
