@<TRIPOS>MOLECULE
CC9
   47    48     1     0     0
SMALL
No Charge or Current Charge


@<TRIPOS>ATOM
      1 O1           1.6290     1.7770     3.7460 o          1 CC9      -0.521600
      2 C1           1.1700     0.7320     3.3080 c          1 CC9       0.586800
      3 C2           1.8010     0.0200     2.1580 ce         1 CC9      -0.321700
      4 C3           2.9180     0.4490     1.4990 cf         1 CC9      -0.060200
      5 C4           3.6250    -0.1650     0.3540 ca         1 CC9      -0.085800
      6 C10          4.7790     0.4620    -0.1600 ca         1 CC9      -0.135000
      7 C8           5.4810    -0.0970    -1.2540 ca         1 CC9       0.072100
      8 O3           6.6180     0.5010    -1.7760 os         1 CC9      -0.344100
      9 C9           7.1650     1.7230    -1.2470 c3         1 CC9       0.150400
     10 C7           5.0130    -1.2980    -1.8370 ca         1 CC9       0.134600
     11 O2           5.6680    -1.8660    -2.8980 oh         1 CC9      -0.519100
     12 C6           3.8630    -1.9230    -1.3270 ca         1 CC9      -0.162000
     13 C5           3.1730    -1.3620    -0.2400 ca         1 CC9      -0.073500
     14 C11         -0.0750     0.1120     3.9090 c3         1 CC9      -0.286400
     15 C12         -1.2610     0.7800     3.2430 c          1 CC9       0.586800
     16 O4          -1.7010     1.8430     3.6570 o          1 CC9      -0.521600
     17 C13         -1.8580     0.0920     2.0610 ce         1 CC9      -0.321700
     18 C14         -2.9210     0.5640     1.3430 cf         1 CC9      -0.060200
     19 C15         -3.5890    -0.0230     0.1620 ca         1 CC9      -0.085800
     20 C16         -4.6890     0.6490    -0.4120 ca         1 CC9      -0.135000
     21 C17         -5.3490     0.1150    -1.5420 ca         1 CC9       0.072100
     22 O5          -6.4320     0.7410    -2.1370 os         1 CC9      -0.344100
     23 C18         -6.9670     1.9850    -1.6470 c3         1 CC9       0.150400
     24 C19         -4.8990    -1.1010    -2.0960 ca         1 CC9       0.134600
     25 O6          -5.5270    -1.6290    -3.1870 oh         1 CC9      -0.519100
     26 C20         -3.8070    -1.7740    -1.5310 ca         1 CC9      -0.162000
     27 C21         -3.1540    -1.2390    -0.4080 ca         1 CC9      -0.073500
     28 H1           1.3120    -0.8990     1.8470 ha         1 CC9       0.182000
     29 H2           3.3740     1.3790     1.8490 ha         1 CC9       0.189500
     30 H3           5.1210     1.3830     0.3020 ha         1 CC9       0.122000
     31 H4           6.4370     2.5420    -1.3230 h1         1 CC9       0.042867
     32 H5           7.4500     1.6000    -0.1940 h1         1 CC9       0.042867
     33 H6           8.0610     2.0140    -1.8090 h1         1 CC9       0.042867
     34 H7           5.1960    -2.6850    -3.1570 ho         1 CC9       0.474000
     35 H8           3.4960    -2.8470    -1.7690 ha         1 CC9       0.125000
     36 H9           2.2870    -1.8680     0.1320 ha         1 CC9       0.118000
     37 H10         -0.0900    -0.9550     3.6690 hc         1 CC9       0.083700
     38 H11         -0.1000     0.3270     4.9820 hc         1 CC9       0.083700
     39 H13         -1.3900    -0.8450     1.7750 ha         1 CC9       0.182000
     40 H14         -3.3580     1.5120     1.6700 ha         1 CC9       0.189500
     41 H16         -5.0200     1.5850     0.0290 ha         1 CC9       0.122000
     42 H17         -6.2080     2.7780    -1.6850 h1         1 CC9       0.042867
     43 H18         -7.8180     2.3020    -2.2630 h1         1 CC9       0.042867
     44 H19         -7.3160     1.8790    -0.6130 h1         1 CC9       0.042867
     45 H20         -6.2540    -1.0100    -3.4200 ho         1 CC9       0.474000
     46 H21         -3.4650    -2.7110    -1.9630 ha         1 CC9       0.125000
     47 H22         -2.3100    -1.7800     0.0100 ha         1 CC9       0.118000
@<TRIPOS>BOND
     1     1     2 2   
     2     2     3 1   
     3     2    14 1   
     4     3     4 2   
     5     3    28 1   
     6     4     5 1   
     7     4    29 1   
     8     5     6 ar  
     9     5    13 ar  
    10     6     7 ar  
    11     6    30 1   
    12     7     8 1   
    13     7    10 ar  
    14     8     9 1   
    15     9    31 1   
    16     9    32 1   
    17     9    33 1   
    18    10    11 1   
    19    10    12 ar  
    20    11    34 1   
    21    12    13 ar  
    22    12    35 1   
    23    13    36 1   
    24    14    15 1   
    25    14    37 1   
    26    14    38 1   
    27    15    16 2   
    28    15    17 1   
    29    17    18 2   
    30    17    39 1   
    31    18    19 1   
    32    18    40 1   
    33    19    20 ar  
    34    19    27 ar  
    35    20    21 ar  
    36    20    41 1   
    37    21    22 1   
    38    21    24 ar  
    39    22    23 1   
    40    23    42 1   
    41    23    43 1   
    42    23    44 1   
    43    24    25 1   
    44    24    26 ar  
    45    25    45 1   
    46    26    27 ar  
    47    26    46 1   
    48    27    47 1   
@<TRIPOS>SUBSTRUCTURE
     1 CC9         1 TEMP              0 ****  ****    0 ROOT
