@<TRIPOS>MOLECULE
CC9
   47    48     1     0     0
SMALL
abcg2


@<TRIPOS>ATOM
      1 O1           1.7960     0.7840     3.5240 o          1 CC9      -0.521600
      2 C1           1.3860     0.1420     2.5760 c          1 CC9       0.586800
      3 C2           2.1850    -0.1170     1.3710 ce         1 CC9      -0.321700
      4 C3           3.4540     0.3060     1.2590 cf         1 CC9      -0.060200
      5 C4           4.3460     0.1060     0.1300 ca         1 CC9      -0.085800
      6 C10          5.6660     0.5730     0.2330 ca         1 CC9      -0.135000
      7 C8           6.5710     0.4130    -0.8000 ca         1 CC9       0.072100
      8 O3           7.8510     0.8270    -0.7850 os         1 CC9      -0.344100
      9 C9           8.3370     1.4540     0.3850 c3         1 CC9       0.150400
     10 C7           6.1550    -0.2280    -1.9830 ca         1 CC9       0.134600
     11 O2           7.0670    -0.3550    -2.9580 oh         1 CC9      -0.519100
     12 C6           4.8500    -0.6880    -2.0890 ca         1 CC9      -0.162000
     13 C5           3.9520    -0.5260    -1.0470 ca         1 CC9      -0.073500
     14 C11         -0.0020    -0.4560     2.5700 c3         1 CC9      -0.286400
     15 C12         -0.9400     0.3250     1.6720 c          1 CC9       0.586800
     16 O4          -0.6190     1.4130     1.2320 o          1 CC9      -0.521600
     17 C13         -2.2300    -0.3150     1.4010 ce         1 CC9      -0.321700
     18 C14         -3.1560     0.2660     0.6200 cf         1 CC9      -0.060200
     19 C15         -4.4570    -0.2700     0.2610 ca         1 CC9      -0.085800
     20 C16         -5.2740     0.4880    -0.5910 ca         1 CC9      -0.135000
     21 C17         -6.5200     0.0300    -0.9750 ca         1 CC9       0.072100
     22 O5          -7.3790     0.6780    -1.7880 os         1 CC9      -0.344100
     23 C18         -7.0040     1.9410    -2.3000 c3         1 CC9       0.150400
     24 C19         -6.9780    -1.2140    -0.5070 ca         1 CC9       0.134600
     25 O6          -8.1800    -1.6930    -0.8590 oh         1 CC9      -0.519100
     26 C20         -6.1720    -1.9650     0.3380 ca         1 CC9      -0.162000
     27 C21         -4.9260    -1.5010     0.7180 ca         1 CC9      -0.073500
     28 H1           1.7080    -0.6830     0.5800 ha         1 CC9       0.182000
     29 H2           3.8780     0.8540     2.0960 ha         1 CC9       0.189500
     30 H3           5.9690     1.0620     1.1500 ha         1 CC9       0.122000
     31 H4           7.7960     2.3760     0.6110 h1         1 CC9       0.042867
     32 H5           8.2840     0.7920     1.2540 h1         1 CC9       0.042867
     33 H6           9.3780     1.6980     0.1930 h1         1 CC9       0.042867
     34 H7           6.6880    -0.8190    -3.7130 ho         1 CC9       0.474000
     35 H8           4.5310    -1.1790    -3.0010 ha         1 CC9       0.125000
     36 H9           2.9430    -0.8950    -1.1680 ha         1 CC9       0.118000
     37 H10          0.0290    -1.4990     2.2380 hc         1 CC9       0.083700
     38 H11         -0.4210    -0.4620     3.5800 hc         1 CC9       0.083700
     39 H13         -2.4000    -1.2850     1.8530 ha         1 CC9       0.182000
     40 H14         -2.9210     1.2380     0.1960 ha         1 CC9       0.189500
     41 H16         -4.9110     1.4450    -0.9440 ha         1 CC9       0.122000
     42 H17         -6.1040     1.8750    -2.9170 h1         1 CC9       0.042867
     43 H18         -7.8300     2.2820    -2.9180 h1         1 CC9       0.042867
     44 H19         -6.8350     2.6660    -1.5010 h1         1 CC9       0.042867
     45 H20         -8.6260    -1.0800    -1.4570 ho         1 CC9       0.474000
     46 H21         -6.5320    -2.9220     0.6950 ha         1 CC9       0.125000
     47 H22         -4.3230    -2.1110     1.3770 ha         1 CC9       0.118000
@<TRIPOS>BOND
     1     1     2 2   
     2     2     3 1   
     3     2    14 1   
     4     3     4 2   
     5     3    28 1   
     6     4     5 1   
     7     4    29 1   
     8     5     6 ar  
     9     5    13 ar  
    10     6     7 ar  
    11     6    30 1   
    12     7     8 1   
    13     7    10 ar  
    14     8     9 1   
    15     9    31 1   
    16     9    32 1   
    17     9    33 1   
    18    10    11 1   
    19    10    12 ar  
    20    11    34 1   
    21    12    13 ar  
    22    12    35 1   
    23    13    36 1   
    24    14    15 1   
    25    14    37 1   
    26    14    38 1   
    27    15    16 2   
    28    15    17 1   
    29    17    18 2   
    30    17    39 1   
    31    18    19 1   
    32    18    40 1   
    33    19    20 ar  
    34    19    27 ar  
    35    20    21 ar  
    36    20    41 1   
    37    21    22 1   
    38    21    24 ar  
    39    22    23 1   
    40    23    42 1   
    41    23    43 1   
    42    23    44 1   
    43    24    25 1   
    44    24    26 ar  
    45    25    45 1   
    46    26    27 ar  
    47    26    46 1   
    48    27    47 1   
@<TRIPOS>SUBSTRUCTURE
     1 CC9         1 TEMP              0 ****  ****    0 ROOT
