@<TRIPOS>MOLECULE
CCA
   44    46     1     0     0
SMALL
bcc


@<TRIPOS>ATOM
      1 C1          -0.4550     3.6860     0.1480 c3         1 CCA       0.122700
      2 O5          -0.7260     2.4130     0.7500 os         1 CCA      -0.375900
      3 C6          -1.4250     1.5470     0.0580 c          1 CCA       0.664100
      4 O7          -1.8760     1.7670    -1.0450 o          1 CCA      -0.577000
      5 C8          -1.6040     0.2260     0.7780 c6         1 CCA      -0.159700
      6 C10         -3.0520    -0.2750     0.6940 c5         1 CCA       0.149500
      7 N12         -3.3980    -0.5240    -0.7450 nx         1 CCA      -0.710400
      8 C14         -4.8530    -0.6440    -0.9860 c3         1 CCA       0.109100
      9 C18         -3.2170    -1.6620     1.3230 c5         1 CCA      -0.100400
     10 C21         -2.9570    -2.6550     0.1690 c5         1 CCA      -0.103400
     11 C24         -2.6270    -1.7770    -1.0400 c5         1 CCA       0.150500
     12 C26         -1.1530    -1.4000    -1.1280 c6         1 CCA      -0.132400
     13 C29         -0.6550    -0.8420     0.2010 c6         1 CCA       0.164100
     14 O1           0.6180    -0.2210     0.0620 os         1 CCA      -0.422900
     15 C2           1.7140    -0.9780     0.1220 c          1 CCA       0.666700
     16 O3           1.6820    -2.1790     0.2210 o          1 CCA      -0.525000
     17 C4           2.9590    -0.1790     0.0580 ca         1 CCA      -0.157600
     18 C5           4.1740    -0.8620     0.0180 ca         1 CCA      -0.069000
     19 C7           5.3670    -0.1600    -0.0310 ca         1 CCA      -0.138500
     20 C9           5.3560     1.2290    -0.0380 ca         1 CCA      -0.078000
     21 C11          4.1490     1.9140     0.0060 ca         1 CCA      -0.138500
     22 C13          2.9520     1.2160     0.0530 ca         1 CCA      -0.069000
     23 H2           0.1480     3.5720    -0.7520 h1         1 CCA       0.068033
     24 H3          -1.3770     4.2120    -0.0950 h1         1 CCA       0.068033
     25 H4           0.1010     4.2480     0.8910 h1         1 CCA       0.068033
     26 H9          -1.3760     0.3620     1.8370 hc         1 CCA       0.128700
     27 H11         -3.7340     0.4700     1.1030 hx         1 CCA       0.114700
     28 H13         -3.0500     0.2610    -1.3110 hn         1 CCA       0.486800
     29 H15         -5.3240     0.3040    -0.7410 hx         1 CCA       0.095367
     30 H16         -5.0080    -0.8730    -2.0360 hx         1 CCA       0.095367
     31 H17         -5.2760    -1.4320    -0.3720 hx         1 CCA       0.095367
     32 H19         -4.2190    -1.7800     1.7300 hc         1 CCA       0.090700
     33 H20         -2.5230    -1.7860     2.1530 hc         1 CCA       0.090700
     34 H22         -3.8370    -3.2670    -0.0240 hc         1 CCA       0.092700
     35 H23         -2.1380    -3.3430     0.3780 hc         1 CCA       0.092700
     36 H25         -2.9680    -2.1850    -1.9890 hx         1 CCA       0.113700
     37 H27         -1.0000    -0.6780    -1.9330 hc         1 CCA       0.103700
     38 H28         -0.5910    -2.2960    -1.3930 hc         1 CCA       0.103700
     39 H30         -0.5810    -1.6490     0.9340 h1         1 CCA       0.087700
     40 H6           4.1870    -1.9440     0.0240 ha         1 CCA       0.146500
     41 H8           6.3050    -0.6980    -0.0640 ha         1 CCA       0.146500
     42 H10          6.2880     1.7780    -0.0750 ha         1 CCA       0.147000
     43 H12          4.1380     2.9950     0.0050 ha         1 CCA       0.146500
     44 H14          2.0220     1.7650     0.0980 ha         1 CCA       0.146500
@<TRIPOS>BOND
     1     1     2 1   
     2     1    23 1   
     3     1    24 1   
     4     1    25 1   
     5     2     3 1   
     6     3     4 2   
     7     3     5 1   
     8     5     6 1   
     9     5    13 1   
    10     5    26 1   
    11     6     7 1   
    12     6     9 1   
    13     6    27 1   
    14     7     8 1   
    15     7    11 1   
    16     7    28 1   
    17     8    29 1   
    18     8    30 1   
    19     8    31 1   
    20     9    10 1   
    21     9    32 1   
    22     9    33 1   
    23    10    11 1   
    24    10    34 1   
    25    10    35 1   
    26    11    12 1   
    27    11    36 1   
    28    12    13 1   
    29    12    37 1   
    30    12    38 1   
    31    13    14 1   
    32    13    39 1   
    33    14    15 1   
    34    15    16 2   
    35    15    17 1   
    36    17    18 ar  
    37    17    22 ar  
    38    18    19 ar  
    39    18    40 1   
    40    19    20 ar  
    41    19    41 1   
    42    20    21 ar  
    43    20    42 1   
    44    21    22 ar  
    45    21    43 1   
    46    22    44 1   
@<TRIPOS>SUBSTRUCTURE
     1 CCA         1 TEMP              0 ****  ****    0 ROOT
