@<TRIPOS>MOLECULE
CCA
   44    46     1     0     0
SMALL
No Charge or Current Charge


@<TRIPOS>ATOM
      1 C1          -0.4090     3.7460     0.2240 c3         1 CCA       0.145900
      2 O5          -0.6300     2.4340     0.7750 os         1 CCA      -0.399100
      3 C6          -1.4750     1.5880     0.1070 c          1 CCA       0.615100
      4 O7          -2.1480     1.9270    -0.8600 o          1 CCA      -0.528000
      5 C8          -1.7000     0.2460     0.8150 c6         1 CCA      -0.159700
      6 C10         -3.1600    -0.2770     0.7020 c5         1 CCA       0.121300
      7 N12         -3.4280    -0.5830    -0.7630 nx         1 CCA      -0.681000
      8 C14         -4.9090    -0.6760    -1.1650 c3         1 CCA       0.080900
      9 C18         -3.3990    -1.6860     1.3290 c5         1 CCA      -0.100400
     10 C21         -3.0350    -2.7100     0.1880 c5         1 CCA      -0.103400
     11 C24         -2.5920    -1.8290    -1.0210 c5         1 CCA       0.122300
     12 C26         -1.0910    -1.4320    -1.0000 c6         1 CCA      -0.132400
     13 C29         -0.6630    -0.8130     0.3590 c6         1 CCA       0.187300
     14 O1           0.6480    -0.2270     0.2690 os         1 CCA      -0.446100
     15 C2           1.7760    -1.0030     0.1800 c          1 CCA       0.617700
     16 O3           1.7580    -2.2260     0.2310 o          1 CCA      -0.476000
     17 C4           3.0530    -0.2040     0.0600 ca         1 CCA      -0.157600
     18 C5           4.2930    -0.8730    -0.0540 ca         1 CCA      -0.051000
     19 C7           5.4900    -0.1440    -0.1670 ca         1 CCA      -0.120500
     20 C9           5.4640     1.2600    -0.1680 ca         1 CCA      -0.060000
     21 C11          4.2380     1.9350    -0.0550 ca         1 CCA      -0.120500
     22 C13          3.0390     1.2110     0.0580 ca         1 CCA      -0.051000
     23 H2           0.0150     3.6810    -0.7870 h1         1 CCA       0.068033
     24 H3          -1.3470     4.3140     0.1700 h1         1 CCA       0.068033
     25 H4           0.2930     4.3110     0.8500 h1         1 CCA       0.068033
     26 H9          -1.4430     0.4290     1.8660 hc         1 CCA       0.128700
     27 H11         -3.8620     0.4810     1.0700 hx         1 CCA       0.114700
     28 H13         -3.0190     0.2150    -1.3120 hn         1 CCA       0.542000
     29 H15         -5.4110     0.2680    -0.9420 hx         1 CCA       0.095367
     30 H16         -4.9880    -0.8860    -2.2340 hx         1 CCA       0.095367
     31 H17         -5.3900    -1.4810    -0.6040 hx         1 CCA       0.095367
     32 H19         -4.4500    -1.7980     1.6190 hc         1 CCA       0.090700
     33 H20         -2.8120    -1.8400     2.2410 hc         1 CCA       0.090700
     34 H22         -3.9110    -3.3100    -0.0810 hc         1 CCA       0.092700
     35 H23         -2.2570    -3.4210     0.4890 hc         1 CCA       0.092700
     36 H25         -2.8510    -2.2690    -1.9900 hx         1 CCA       0.113700
     37 H27         -0.8880    -0.7260    -1.8160 hc         1 CCA       0.103700
     38 H28         -0.4870    -2.3230    -1.2110 hc         1 CCA       0.103700
     39 H30         -0.6320    -1.6100     1.1180 h1         1 CCA       0.087700
     40 H6           4.3330    -1.9600    -0.0550 ha         1 CCA       0.128500
     41 H8           6.4380    -0.6690    -0.2540 ha         1 CCA       0.128500
     42 H10          6.3910     1.8230    -0.2560 ha         1 CCA       0.129000
     43 H12          4.2170     3.0230    -0.0560 ha         1 CCA       0.128500
     44 H14          2.1030     1.7590     0.1450 ha         1 CCA       0.128500
@<TRIPOS>BOND
     1     1     2 1   
     2     1    23 1   
     3     1    24 1   
     4     1    25 1   
     5     2     3 1   
     6     3     4 2   
     7     3     5 1   
     8     5     6 1   
     9     5    13 1   
    10     5    26 1   
    11     6     7 1   
    12     6     9 1   
    13     6    27 1   
    14     7     8 1   
    15     7    11 1   
    16     7    28 1   
    17     8    29 1   
    18     8    30 1   
    19     8    31 1   
    20     9    10 1   
    21     9    32 1   
    22     9    33 1   
    23    10    11 1   
    24    10    34 1   
    25    10    35 1   
    26    11    12 1   
    27    11    36 1   
    28    12    13 1   
    29    12    37 1   
    30    12    38 1   
    31    13    14 1   
    32    13    39 1   
    33    14    15 1   
    34    15    16 2   
    35    15    17 1   
    36    17    18 ar  
    37    17    22 ar  
    38    18    19 ar  
    39    18    40 1   
    40    19    20 ar  
    41    19    41 1   
    42    20    21 ar  
    43    20    42 1   
    44    21    22 ar  
    45    21    43 1   
    46    22    44 1   
@<TRIPOS>SUBSTRUCTURE
     1 CCA         1 TEMP              0 ****  ****    0 ROOT
