@<TRIPOS>MOLECULE
CCB
   29    30     1     0     0
SMALL
bcc


@<TRIPOS>ATOM
      1 N1          -0.5960    -0.0340     0.3410 n          1 CCB      -0.462800
      2 C2          -1.8980     0.0140     0.0200 c          1 CCB       0.666900
      3 O3          -2.8340     0.0900     0.8000 o          1 CCB      -0.606100
      4 C5           0.4000    -0.1110    -0.7230 c5         1 CCB       0.100700
      5 C6          -0.1630     0.0310     1.7170 cy         1 CCB       0.083700
      6 C7           0.4790     1.1490    -1.6000 c5         1 CCB      -0.095900
      7 C8           1.0210     0.6330    -2.9270 c5         1 CCB      -0.081400
      8 C9           0.2560    -0.6770    -3.1150 c5         1 CCB      -0.081400
      9 C10          0.2290    -1.2980    -1.7120 c5         1 CCB      -0.095900
     10 C20          0.9110     1.0490     2.1460 cy         1 CCB      -0.105400
     11 C21          1.4190    -0.0090     3.1460 cy         1 CCB      -0.092400
     12 C22          0.7090    -1.0910     2.3080 cy         1 CCB      -0.105400
     13 H2          -2.0640    -0.0240    -1.0680 h5         1 CCB       0.010200
     14 H5           1.3620    -0.2330    -0.2260 h1         1 CCB       0.060700
     15 H6          -1.0510     0.1610     2.3330 h1         1 CCB       0.092700
     16 H71         -0.5210     1.5650    -1.7500 hc         1 CCB       0.051200
     17 H72          1.0900     1.9290    -1.1420 hc         1 CCB       0.051200
     18 H81          2.0940     0.4350    -2.8470 hc         1 CCB       0.046700
     19 H82          0.8800     1.3380    -3.7480 hc         1 CCB       0.046700
     20 H91          0.7060    -1.3360    -3.8570 hc         1 CCB       0.046700
     21 H92         -0.7610    -0.4580    -3.4520 hc         1 CCB       0.046700
     22 H101         1.0600    -1.9930    -1.5870 hc         1 CCB       0.051200
     23 H102        -0.6810    -1.8680    -1.5250 hc         1 CCB       0.051200
     24 H201         1.6480     1.2290     1.3610 hc         1 CCB       0.053700
     25 H202         0.5670     2.0090     2.5290 hc         1 CCB       0.053700
     26 H211         0.9650     0.1080     4.1300 hc         1 CCB       0.052700
     27 H212         2.4970    -0.1020     3.2690 hc         1 CCB       0.052700
     28 H221         0.1950    -1.9010     2.8260 hc         1 CCB       0.053700
     29 H222         1.3820    -1.5250     1.5660 hc         1 CCB       0.053700
@<TRIPOS>BOND
     1     1     2 1   
     2     1     4 1   
     3     1     5 1   
     4     2     3 2   
     5     2    13 1   
     6     4     6 1   
     7     4     9 1   
     8     4    14 1   
     9     5    10 1   
    10     5    12 1   
    11     5    15 1   
    12     6     7 1   
    13     6    16 1   
    14     6    17 1   
    15     7     8 1   
    16     7    18 1   
    17     7    19 1   
    18     8     9 1   
    19     8    20 1   
    20     8    21 1   
    21     9    22 1   
    22     9    23 1   
    23    10    11 1   
    24    10    24 1   
    25    10    25 1   
    26    11    12 1   
    27    11    26 1   
    28    11    27 1   
    29    12    28 1   
    30    12    29 1   
@<TRIPOS>SUBSTRUCTURE
     1 CCB         1 TEMP              0 ****  ****    0 ROOT
