@<TRIPOS>MOLECULE
CCB
   29    30     1     0     0
SMALL
No Charge or Current Charge


@<TRIPOS>ATOM
      1 N1          -0.5720    -0.1100     0.2760 n          1 CCB      -0.395800
      2 C2          -1.9290    -0.2360    -0.0960 c          1 CCB       0.599900
      3 O3          -2.8450    -0.2170     0.7190 o          1 CCB      -0.606100
      4 C5           0.5450    -0.2240    -0.7200 c5         1 CCB       0.100700
      5 C6          -0.1200     0.0660     1.6700 cy         1 CCB       0.083700
      6 C7           0.5930     1.1290    -1.4970 c5         1 CCB      -0.095900
      7 C8           1.0020     0.6640    -2.9160 c5         1 CCB      -0.081400
      8 C9           0.0230    -0.5210    -3.1110 c5         1 CCB      -0.081400
      9 C10          0.2410    -1.3260    -1.7980 c5         1 CCB      -0.095900
     10 C20          1.0480     1.0480     2.0450 cy         1 CCB      -0.105400
     11 C21          1.2680     0.1210     3.2880 cy         1 CCB      -0.092400
     12 C22          0.7460    -1.0360     2.3710 cy         1 CCB      -0.105400
     13 H2          -2.0910    -0.3380    -1.1840 h5         1 CCB       0.010200
     14 H5           1.5140    -0.4390    -0.2510 h1         1 CCB       0.060700
     15 H6          -1.0020     0.2980     2.2810 h1         1 CCB       0.092700
     16 H71         -0.3780     1.6380    -1.5220 hc         1 CCB       0.051200
     17 H72          1.3120     1.8320    -1.0620 hc         1 CCB       0.051200
     18 H81          2.0500     0.3430    -2.9570 hc         1 CCB       0.046700
     19 H82          0.8660     1.4490    -3.6680 hc         1 CCB       0.046700
     20 H91          0.2560    -1.1120    -4.0040 hc         1 CCB       0.046700
     21 H92         -1.0120    -0.1750    -3.2150 hc         1 CCB       0.046700
     22 H101         1.1130    -1.9820    -1.9030 hc         1 CCB       0.051200
     23 H102        -0.5970    -1.9880    -1.5560 hc         1 CCB       0.051200
     24 H201         1.8960     1.0750     1.3530 hc         1 CCB       0.053700
     25 H202         0.7480     2.0780     2.2640 hc         1 CCB       0.053700
     26 H211         0.6250     0.3480     4.1470 hc         1 CCB       0.052700
     27 H212         2.3010     0.0270     3.6390 hc         1 CCB       0.052700
     28 H221         0.1860    -1.8300     2.8760 hc         1 CCB       0.053700
     29 H222         1.5150    -1.5010     1.7430 hc         1 CCB       0.053700
@<TRIPOS>BOND
     1     1     2 1   
     2     1     4 1   
     3     1     5 1   
     4     2     3 2   
     5     2    13 1   
     6     4     6 1   
     7     4     9 1   
     8     4    14 1   
     9     5    10 1   
    10     5    12 1   
    11     5    15 1   
    12     6     7 1   
    13     6    16 1   
    14     6    17 1   
    15     7     8 1   
    16     7    18 1   
    17     7    19 1   
    18     8     9 1   
    19     8    20 1   
    20     8    21 1   
    21     9    22 1   
    22     9    23 1   
    23    10    11 1   
    24    10    24 1   
    25    10    25 1   
    26    11    12 1   
    27    11    26 1   
    28    11    27 1   
    29    12    28 1   
    30    12    29 1   
@<TRIPOS>SUBSTRUCTURE
     1 CCB         1 TEMP              0 ****  ****    0 ROOT
