@<TRIPOS>MOLECULE
CCD
   30    29     1     0     0
SMALL
No Charge or Current Charge


@<TRIPOS>ATOM
      1 O7           3.0420     1.3160    -0.0670 oh         1 CCD      -0.651000
      2 C5           2.8790    -0.0500     0.3260 c3         1 CCD       0.171300
      3 C6           4.1270    -0.8380    -0.1130 c3         1 CCD      -0.128100
      4 C4           1.5760    -0.6180    -0.2890 c3         1 CCD      -0.114400
      5 C3           0.2870     0.0770     0.2110 c3         1 CCD      -0.094400
      6 C2          -0.9870    -0.5500    -0.3940 c3         1 CCD       0.097600
      7 N1          -2.3430     0.0440     0.0240 n4         1 CCD      -0.495000
      8 C9          -2.4280     1.5250    -0.3760 c3         1 CCD       0.074567
      9 C10         -3.4590    -0.7270    -0.6940 c3         1 CCD       0.074567
     10 C8          -2.5450    -0.0910     1.5410 c3         1 CCD       0.074567
     11 HO7          3.1230     1.3240    -1.0450 ho         1 CCD       0.443000
     12 HXT          2.8020    -0.1190     1.4210 h1         1 CCD       0.076700
     13 H61          5.0310    -0.4140     0.3400 hc         1 CCD       0.053367
     14 H62          4.0500    -1.8850     0.2040 hc         1 CCD       0.053367
     15 H63          4.2440    -0.8190    -1.2040 hc         1 CCD       0.053367
     16 H41          1.6260    -0.5480    -1.3830 hc         1 CCD       0.054200
     17 H42          1.5130    -1.6860    -0.0470 hc         1 CCD       0.054200
     18 H31          0.2450     0.0080     1.3050 hc         1 CCD       0.070200
     19 H32          0.3240     1.1420    -0.0440 hc         1 CCD       0.070200
     20 H21         -0.9230    -0.4760    -1.4820 hx         1 CCD       0.090700
     21 H22         -1.0050    -1.6110    -0.1350 hx         1 CCD       0.090700
     22 H91         -2.2740     1.6180    -1.4530 hx         1 CCD       0.097589
     23 H92         -3.4120     1.9140    -0.1100 hx         1 CCD       0.097589
     24 H93         -1.6580     2.0880     0.1540 hx         1 CCD       0.097589
     25 H101        -3.4100    -1.7800    -0.4110 hx         1 CCD       0.097589
     26 H102        -4.4270    -0.3140    -0.4050 hx         1 CCD       0.097589
     27 H103        -3.3270    -0.6310    -1.7740 hx         1 CCD       0.097589
     28 H81         -1.7740     0.4810     2.0620 hx         1 CCD       0.097589
     29 H82         -3.5300     0.2950     1.8090 hx         1 CCD       0.097589
     30 H83         -2.4740    -1.1440     1.8220 hx         1 CCD       0.097589
@<TRIPOS>BOND
     1     1     2 1   
     2     1    11 1   
     3     2     3 1   
     4     2     4 1   
     5     2    12 1   
     6     3    13 1   
     7     3    14 1   
     8     3    15 1   
     9     4     5 1   
    10     4    16 1   
    11     4    17 1   
    12     5     6 1   
    13     5    18 1   
    14     5    19 1   
    15     6     7 1   
    16     6    20 1   
    17     6    21 1   
    18     7     8 1   
    19     7     9 1   
    20     7    10 1   
    21     8    22 1   
    22     8    23 1   
    23     8    24 1   
    24     9    25 1   
    25     9    26 1   
    26     9    27 1   
    27    10    28 1   
    28    10    29 1   
    29    10    30 1   
@<TRIPOS>SUBSTRUCTURE
     1 CCD         1 TEMP              0 ****  ****    0 ROOT
