@<TRIPOS>MOLECULE
CCD
   30    29     1     0     0
SMALL
bcc


@<TRIPOS>ATOM
      1 O7           2.9700     1.3190     0.0620 oh         1 CCD      -0.588800
      2 C5           2.8100    -0.0640     0.3170 c3         1 CCD       0.148100
      3 C6           4.0150    -0.8660    -0.1520 c3         1 CCD      -0.128100
      4 C4           1.5170    -0.6080    -0.2850 c3         1 CCD      -0.114400
      5 C3           0.2700     0.1060     0.2260 c3         1 CCD      -0.094400
      6 C2          -0.9560    -0.5370    -0.3910 c3         1 CCD       0.125800
      7 N1          -2.2810     0.0470     0.0230 n4         1 CCD      -0.607800
      8 C9          -2.3850     1.4720    -0.3940 c3         1 CCD       0.102767
      9 C10         -3.3520    -0.7340    -0.6570 c3         1 CCD       0.102767
     10 C8          -2.4760    -0.0540     1.4950 c3         1 CCD       0.102767
     11 HO7          3.0370     1.4400    -0.8920 ho         1 CCD       0.404000
     12 HXT          2.7390    -0.1460     1.4070 h1         1 CCD       0.076700
     13 H61          4.9350    -0.4890     0.2960 hc         1 CCD       0.053367
     14 H62          3.9150    -1.9160     0.1220 hc         1 CCD       0.053367
     15 H63          4.1220    -0.8160    -1.2390 hc         1 CCD       0.053367
     16 H41          1.5680    -0.5380    -1.3780 hc         1 CCD       0.054200
     17 H42          1.4480    -1.6740    -0.0510 hc         1 CCD       0.054200
     18 H31          0.2410     0.0280     1.3150 hc         1 CCD       0.070200
     19 H32          0.3260     1.1660    -0.0250 hc         1 CCD       0.070200
     20 H21         -0.9200    -0.4590    -1.4790 hx         1 CCD       0.090700
     21 H22         -1.0010    -1.5960    -0.1360 hx         1 CCD       0.090700
     22 H91         -2.1810     1.5490    -1.4590 hx         1 CCD       0.097589
     23 H92         -3.3900     1.8280    -0.1850 hx         1 CCD       0.097589
     24 H93         -1.6700     2.0710     0.1620 hx         1 CCD       0.097589
     25 H101        -3.2640    -1.7790    -0.3720 hx         1 CCD       0.097589
     26 H102        -4.3230    -0.3510    -0.3550 hx         1 CCD       0.097589
     27 H103        -3.2350    -0.6390    -1.7330 hx         1 CCD       0.097589
     28 H81         -1.7570     0.5780     2.0080 hx         1 CCD       0.097589
     29 H82         -3.4810     0.2800     1.7370 hx         1 CCD       0.097589
     30 H83         -2.3480    -1.0870     1.8050 hx         1 CCD       0.097589
@<TRIPOS>BOND
     1     1     2 1   
     2     1    11 1   
     3     2     3 1   
     4     2     4 1   
     5     2    12 1   
     6     3    13 1   
     7     3    14 1   
     8     3    15 1   
     9     4     5 1   
    10     4    16 1   
    11     4    17 1   
    12     5     6 1   
    13     5    18 1   
    14     5    19 1   
    15     6     7 1   
    16     6    20 1   
    17     6    21 1   
    18     7     8 1   
    19     7     9 1   
    20     7    10 1   
    21     8    22 1   
    22     8    23 1   
    23     8    24 1   
    24     9    25 1   
    25     9    26 1   
    26     9    27 1   
    27    10    28 1   
    28    10    29 1   
    29    10    30 1   
@<TRIPOS>SUBSTRUCTURE
     1 CCD         1 TEMP              0 ****  ****    0 ROOT
