@<TRIPOS>MOLECULE
CCE
   25    24     1     0     0
SMALL
bcc


@<TRIPOS>ATOM
      1 N1          -1.9090     0.1400    -0.1810 n4         1 CCE      -0.608800
      2 C2          -1.0550    -0.6830     0.7480 c3         1 CCE       0.119800
      3 C3           0.3440    -1.0080     0.2830 c3         1 CCE       0.144400
      4 O4           1.1700     0.1290     0.4850 os         1 CCE      -0.471900
      5 C5           2.4570     0.0240     0.1130 c          1 CCE       0.756100
      6 O7           2.9330    -0.9840    -0.3670 o          1 CCE      -0.557000
      7 C8          -2.1720    -0.5960    -1.4490 c3         1 CCE       0.104433
      8 C9          -1.2920     1.4600    -0.4960 c3         1 CCE       0.104433
      9 C10         -3.2090     0.3770     0.5120 c3         1 CCE       0.104433
     10 N6           3.1110     1.1730     0.3310 nt         1 CCE      -0.651000
     11 H2C1        -1.0260    -0.1590     1.7030 hx         1 CCE       0.105200
     12 H2C2        -1.5920    -1.6190     0.9000 hx         1 CCE       0.105200
     13 H3C1         0.6850    -1.8450     0.8960 h1         1 CCE       0.086200
     14 H3C2         0.3710    -1.3420    -0.7560 h1         1 CCE       0.086200
     15 H8C1        -1.2410    -0.7560    -1.9840 hx         1 CCE       0.098478
     16 H8C2        -2.6340    -1.5530    -1.2200 hx         1 CCE       0.098478
     17 H8C3        -2.8390    -0.0010    -2.0660 hx         1 CCE       0.098478
     18 H9C1        -2.0200     2.0550    -1.0400 hx         1 CCE       0.098478
     19 H9C2        -1.0220     1.9620     0.4280 hx         1 CCE       0.098478
     20 H9C3        -0.4120     1.3210    -1.1160 hx         1 CCE       0.098478
     21 H101        -3.6580    -0.5790     0.7700 hx         1 CCE       0.098478
     22 H102        -3.0310     0.9520     1.4160 hx         1 CCE       0.098478
     23 H103        -3.8700     0.9280    -0.1510 hx         1 CCE       0.098478
     24 H6N1         2.6830     1.9430     0.8160 hn         1 CCE       0.342500
     25 H6N2         4.1040     1.2080     0.1820 hn         1 CCE       0.342500
@<TRIPOS>BOND
     1     1     2 1   
     2     1     7 1   
     3     1     8 1   
     4     1     9 1   
     5     2     3 1   
     6     2    11 1   
     7     2    12 1   
     8     3     4 1   
     9     3    13 1   
    10     3    14 1   
    11     4     5 1   
    12     5     6 2   
    13     5    10 1   
    14     7    15 1   
    15     7    16 1   
    16     7    17 1   
    17     8    18 1   
    18     8    19 1   
    19     8    20 1   
    20     9    21 1   
    21     9    22 1   
    22     9    23 1   
    23    10    24 1   
    24    10    25 1   
@<TRIPOS>SUBSTRUCTURE
     1 CCE         1 TEMP              0 ****  ****    0 ROOT
