@<TRIPOS>MOLECULE
CCE
   25    24     1     0     0
SMALL
No Charge or Current Charge


@<TRIPOS>ATOM
      1 N1          -1.9310     0.1630    -0.1470 n4         1 CCE      -0.496000
      2 C2          -1.0750    -0.7010     0.8120 c3         1 CCE       0.091600
      3 C3           0.3670    -1.0900     0.4020 c3         1 CCE       0.167600
      4 O4           1.1890     0.0950     0.4080 os         1 CCE      -0.495100
      5 C5           2.4950    -0.0430     0.0610 c          1 CCE       0.640100
      6 O7           3.0490    -1.0770    -0.2640 o          1 CCE      -0.508000
      7 C8          -2.0690    -0.5250    -1.5150 c3         1 CCE       0.076233
      8 C9          -1.3030     1.5530    -0.3360 c3         1 CCE       0.076233
      9 C10         -3.3300     0.3370     0.4620 c3         1 CCE       0.076233
     10 N6           3.1070     1.1440     0.1250 nt         1 CCE      -0.584000
     11 H2C1        -1.0210    -0.1770     1.7680 hx         1 CCE       0.105200
     12 H2C2        -1.6270    -1.6280     0.9790 hx         1 CCE       0.105200
     13 H3C1         0.7500    -1.8260     1.1210 h1         1 CCE       0.086200
     14 H3C2         0.3550    -1.5630    -0.5890 h1         1 CCE       0.086200
     15 H8C1        -1.0830    -0.6190    -1.9750 hx         1 CCE       0.098478
     16 H8C2        -2.5100    -1.5140    -1.3800 hx         1 CCE       0.098478
     17 H8C3        -2.7130     0.0790    -2.1580 hx         1 CCE       0.098478
     18 H9C1        -1.9520     2.1610    -0.9690 hx         1 CCE       0.098478
     19 H9C2        -1.1850     2.0310     0.6380 hx         1 CCE       0.098478
     20 H9C3        -0.3260     1.4460    -0.8120 hx         1 CCE       0.098478
     21 H101        -3.7930    -0.6430     0.5920 hx         1 CCE       0.098478
     22 H102        -3.2430     0.8330     1.4320 hx         1 CCE       0.098478
     23 H103        -3.9420     0.9450    -0.2060 hx         1 CCE       0.098478
     24 H6N1         2.5790     1.9540     0.4090 hn         1 CCE       0.342500
     25 H6N2         4.0860     1.2140    -0.1020 hn         1 CCE       0.342500
@<TRIPOS>BOND
     1     1     2 1   
     2     1     7 1   
     3     1     8 1   
     4     1     9 1   
     5     2     3 1   
     6     2    11 1   
     7     2    12 1   
     8     3     4 1   
     9     3    13 1   
    10     3    14 1   
    11     4     5 1   
    12     5     6 2   
    13     5    10 1   
    14     7    15 1   
    15     7    16 1   
    16     7    17 1   
    17     8    18 1   
    18     8    19 1   
    19     8    20 1   
    20     9    21 1   
    21     9    22 1   
    22     9    23 1   
    23    10    24 1   
    24    10    25 1   
@<TRIPOS>SUBSTRUCTURE
     1 CCE         1 TEMP              0 ****  ****    0 ROOT
