@<TRIPOS>MOLECULE
CCI
  120   124     1     0     0
SMALL
bcc


@<TRIPOS>ATOM
      1 C1D         -8.8350    -0.9700    -0.2140 c6         1 CCI       0.322900
      2 C2D         -9.6520    -1.8170     0.7660 c6         1 CCI       0.090100
      3 C3D        -10.5550    -0.9240     1.6150 c6         1 CCI       0.159100
      4 C4D        -11.4100    -0.0500     0.7090 c6         1 CCI       0.126100
      5 C5D        -10.4920     0.7450    -0.2300 c6         1 CCI       0.112100
      6 C6D        -11.2600     1.5520    -1.2550 c3         1 CCI      -0.090100
      7 OCD         -7.8600    -0.2360     0.5330 os         1 CCI      -0.365900
      8 O2D        -10.4730    -2.7070     0.0540 oh         1 CCI      -0.569800
      9 O3D        -11.4010    -1.6660     2.4490 os         1 CCI      -0.378600
     10 O4D        -12.1500     0.8260     1.5230 oh         1 CCI      -0.583800
     11 OD          -9.6230    -0.1190    -0.9590 os         1 CCI      -0.394600
     12 C7D        -10.7650    -2.2310     3.5690 c3         1 CCI       0.124700
     13 C3C         -5.9870     0.9100    -0.4100 ca         1 CCI       0.024900
     14 C4C         -6.5890    -0.2470     0.0810 ca         1 CCI       0.166100
     15 C5C         -5.8500    -1.4300     0.1560 ca         1 CCI       0.019100
     16 C6C         -4.5330    -1.4430    -0.2870 ca         1 CCI       0.157100
     17 C1C         -3.9560    -0.2790    -0.7830 ca         1 CCI      -0.187600
     18 C2C         -4.6580     0.9260    -0.8420 ca         1 CCI       0.028700
     19 O5C         -6.4200    -2.5520     0.6560 os         1 CCI      -0.340900
     20 C8C         -6.2070    -2.7390     2.0540 c3         1 CCI       0.122700
     21 O6C         -3.7750    -2.5590    -0.1900 os         1 CCI      -0.337900
     22 C9C         -4.0420    -3.5680    -1.1630 c3         1 CCI       0.127700
     23 C7C         -4.0200     2.1730    -1.3820 c3         1 CCI      -0.062800
     24 CBC         -2.5380    -0.3900    -1.2500 c          1 CCI       0.621300
     25 OBC         -2.2260    -0.8300    -2.3270 o          1 CCI      -0.509100
     26 SBC         -1.4190     0.1820    -0.0290 ss         1 CCI      -0.239700
     27 C1B          2.8040     1.0480    -1.3450 c6         1 CCI       0.359900
     28 C2B          1.7830     1.1120    -2.4620 c6         1 CCI      -0.146400
     29 C3B          0.3720     1.1840    -1.8770 c6         1 CCI       0.150100
     30 C4B          0.1820     0.0400    -0.8810 c6         1 CCI      -0.016600
     31 C5B          1.3090     0.0070     0.1640 c6         1 CCI       0.181100
     32 C6B          1.2420    -1.2000     1.0790 c3         1 CCI      -0.091100
     33 O3B          0.1540     2.3910    -1.1850 oh         1 CCI      -0.591800
     34 OB           2.5440    -0.0580    -0.5190 os         1 CCI      -0.431600
     35 C1A          8.4380    -1.3670    -0.4790 c6         1 CCI       0.345900
     36 C2A          8.7050     0.0940    -0.8130 c6         1 CCI       0.104100
     37 C3A          7.4240     0.8970    -0.5970 c6         1 CCI       0.118100
     38 C4A          6.2400     0.2900    -1.3550 c6         1 CCI       0.113500
     39 C5A          6.1270    -1.2000    -0.9970 c6         1 CCI       0.176100
     40 C6A          5.0870    -1.9760    -1.7800 c3         1 CCI      -0.083100
     41 ORA          9.5490    -2.1190    -0.7740 os         1 CCI      -0.383600
     42 OEA          9.7090     0.6060     0.0350 os         1 CCI      -0.439600
     43 O3A          7.5980     2.2330    -1.0210 oh         1 CCI      -0.605800
     44 NAB          5.0730     1.0560    -0.9520 n7         1 CCI      -0.533700
     45 OA           7.3710    -1.8260    -1.2660 os         1 CCI      -0.445600
     46 CAN          9.5500    -3.4170    -0.2120 c3         1 CCI       0.126700
     47 C1E         10.7370     1.3310    -0.5860 c6         1 CCI       0.341900
     48 C2E         11.4470     2.1420     0.4870 c6         1 CCI      -0.129400
     49 C3E         12.2870     1.2570     1.4050 c6         1 CCI       0.141100
     50 C4E         13.2350     0.4170     0.5590 c6         1 CCI       0.142500
     51 C5E         12.3980    -0.3540    -0.4590 c6         1 CCI       0.135400
     52 O3E         13.0600     2.0160     2.3070 os         1 CCI      -0.419600
     53 C6E         12.3450     2.5250     3.4070 c3         1 CCI       0.126700
     54 N4E         13.9750    -0.5130     1.3890 n7         1 CCI      -0.808200
     55 C7E         15.1860    -1.0250     0.7660 c3         1 CCI       0.159800
     56 C8E         15.9570    -1.9090     1.7280 c3         1 CCI      -0.093100
     57 OE          11.6230     0.5010    -1.2780 os         1 CCI      -0.415600
     58 H1D         -8.3310    -1.6210    -0.9350 h2         1 CCI       0.085700
     59 H2D         -8.9510    -2.3590     1.4100 h1         1 CCI       0.054700
     60 H3D         -9.9090    -0.2640     2.2180 h1         1 CCI       0.062700
     61 H4D        -12.0740    -0.6870     0.1080 h1         1 CCI       0.068700
     62 H5D         -9.8990     1.4310     0.3880 h1         1 CCI       0.064700
     63 H6D1       -11.9110     2.2790    -0.7690 hc         1 CCI       0.046367
     64 H6D2       -10.5770     2.1110    -1.8950 hc         1 CCI       0.046367
     65 H6D3       -11.8760     0.9080    -1.8850 hc         1 CCI       0.046367
     66 HOD2        -9.9220    -3.3910    -0.3390 ho         1 CCI       0.405000
     67 HOD4       -12.8890     1.1690     1.0120 ho         1 CCI       0.406000
     68 H7D1       -10.0560    -3.0240     3.3050 h1         1 CCI       0.027700
     69 H7D2       -10.2260    -1.4780     4.1550 h1         1 CCI       0.027700
     70 H7D3       -11.5370    -2.6690     4.2000 h1         1 CCI       0.027700
     71 H8C1        -6.7390    -3.6440     2.3390 h1         1 CCI       0.044700
     72 H8C2        -5.1470    -2.8660     2.2820 h1         1 CCI       0.044700
     73 H8C3        -6.5970    -1.9000     2.6350 h1         1 CCI       0.044700
     74 H9C1        -3.3300    -4.3700    -0.9820 h1         1 CCI       0.047033
     75 H9C2        -5.0530    -3.9650    -1.0710 h1         1 CCI       0.047033
     76 H9C3        -3.8950    -3.1850    -2.1750 h1         1 CCI       0.047033
     77 H7C1        -4.0290     2.9720    -0.6410 hc         1 CCI       0.061367
     78 H7C2        -2.9840     2.0230    -1.6750 hc         1 CCI       0.061367
     79 H7C3        -4.5590     2.5330    -2.2590 hc         1 CCI       0.061367
     80 H1B          2.7690     1.9700    -0.7400 h2         1 CCI       0.040700
     81 H2B1         1.9580     1.9780    -3.1060 hc         1 CCI       0.068700
     82 H2B2         1.8690     0.2190    -3.0880 hc         1 CCI       0.068700
     83 H3B         -0.3490     1.0670    -2.6940 h1         1 CCI       0.051700
     84 H4B          0.1840    -0.9080    -1.4250 h1         1 CCI       0.099700
     85 H5B          1.2700     0.9230     0.7710 h1         1 CCI       0.058700
     86 H6B1         1.2250    -2.1270     0.5040 hc         1 CCI       0.051033
     87 H6B2         2.1090    -1.2170     1.7390 hc         1 CCI       0.051033
     88 H6B3         0.3510    -1.1710     1.7030 hc         1 CCI       0.051033
     89 HOB3         0.2120     3.1160    -1.8150 ho         1 CCI       0.407000
     90 H1A          8.1720    -1.4610     0.5930 h2         1 CCI       0.026700
     91 H2A          8.9990     0.1560    -1.8700 h1         1 CCI       0.088700
     92 H3A          7.1820     0.8680     0.4760 h1         1 CCI       0.053700
     93 H4A          6.4320     0.3760    -2.4380 h1         1 CCI       0.075700
     94 H5A          5.8970    -1.2720     0.0780 h1         1 CCI       0.044700
     95 H6A1         5.2060    -1.8280    -2.8550 hc         1 CCI       0.052367
     96 H6A2         5.1940    -3.0410    -1.5680 hc         1 CCI       0.052367
     97 H6A3         4.0810    -1.6810    -1.5030 hc         1 CCI       0.052367
     98 HOA3         7.8820     2.7640    -0.2720 ho         1 CCI       0.415000
     99 HAB          5.3290     2.0370    -1.0300 hn         1 CCI       0.354800
    100 HAN1        10.5360    -3.8440    -0.3860 h1         1 CCI       0.035033
    101 HAN2         9.3700    -3.3850     0.8670 h1         1 CCI       0.035033
    102 HAN3         8.8010    -4.0690    -0.6690 h1         1 CCI       0.035033
    103 H1E         10.3210     1.9990    -1.3470 h2         1 CCI       0.074700
    104 H2E1        12.1040     2.8610    -0.0100 hc         1 CCI       0.062200
    105 H2E2        10.7080     2.7180     1.0480 hc         1 CCI       0.062200
    106 H3E         11.6300     0.5730     1.9650 h1         1 CCI       0.061700
    107 H4E         13.9060     1.1070     0.0150 h1         1 CCI       0.041700
    108 H5E1        13.0390    -0.9180    -1.1380 h1         1 CCI       0.065200
    109 H5E2        11.7690    -1.0750     0.0720 h1         1 CCI       0.065200
    110 H6E1        13.0620     2.9990     4.0760 h1         1 CCI       0.029367
    111 H6E2        11.6020     3.2770     3.1200 h1         1 CCI       0.029367
    112 H6E3        11.8280     1.7320     3.9590 h1         1 CCI       0.029367
    113 HNE2        14.2420    -0.0350     2.2410 hn         1 CCI       0.368800
    114 H7E1        14.9170    -1.6080    -0.1180 h1         1 CCI       0.028200
    115 H7E2        15.8370    -0.2120     0.4080 h1         1 CCI       0.028200
    116 H8E1        16.8720    -2.2750     1.2630 hc         1 CCI       0.037367
    117 H8E2        16.2410    -1.3590     2.6280 hc         1 CCI       0.037367
    118 H8E3        15.3640    -2.7710     2.0340 hc         1 CCI       0.037367
    119 I           -7.1330     2.6700    -0.4460 i          1 CCI      -0.141900
    120 OAB          4.0540     0.8930    -1.9200 os         1 CCI      -0.243100
@<TRIPOS>BOND
     1     1     2 1   
     2     1     7 1   
     3     1    11 1   
     4     1    58 1   
     5     2     3 1   
     6     2     8 1   
     7     2    59 1   
     8     3     4 1   
     9     3     9 1   
    10     3    60 1   
    11     4     5 1   
    12     4    10 1   
    13     4    61 1   
    14     5     6 1   
    15     5    11 1   
    16     5    62 1   
    17     6    63 1   
    18     6    64 1   
    19     6    65 1   
    20     7    14 1   
    21     8    66 1   
    22     9    12 1   
    23    10    67 1   
    24    12    68 1   
    25    12    69 1   
    26    12    70 1   
    27    13    14 ar  
    28    13    18 ar  
    29    13   119 1   
    30    14    15 ar  
    31    15    16 ar  
    32    15    19 1   
    33    16    17 ar  
    34    16    21 1   
    35    17    18 ar  
    36    17    24 1   
    37    18    23 1   
    38    19    20 1   
    39    20    71 1   
    40    20    72 1   
    41    20    73 1   
    42    21    22 1   
    43    22    74 1   
    44    22    75 1   
    45    22    76 1   
    46    23    77 1   
    47    23    78 1   
    48    23    79 1   
    49    24    25 2   
    50    24    26 1   
    51    26    30 1   
    52    27    28 1   
    53    27    34 1   
    54    27    80 1   
    55    27   120 1   
    56    28    29 1   
    57    28    81 1   
    58    28    82 1   
    59    29    30 1   
    60    29    33 1   
    61    29    83 1   
    62    30    31 1   
    63    30    84 1   
    64    31    32 1   
    65    31    34 1   
    66    31    85 1   
    67    32    86 1   
    68    32    87 1   
    69    32    88 1   
    70    33    89 1   
    71    35    36 1   
    72    35    41 1   
    73    35    45 1   
    74    35    90 1   
    75    36    37 1   
    76    36    42 1   
    77    36    91 1   
    78    37    38 1   
    79    37    43 1   
    80    37    92 1   
    81    38    39 1   
    82    38    44 1   
    83    38    93 1   
    84    39    40 1   
    85    39    45 1   
    86    39    94 1   
    87    40    95 1   
    88    40    96 1   
    89    40    97 1   
    90    41    46 1   
    91    42    47 1   
    92    43    98 1   
    93    44    99 1   
    94    44   120 1   
    95    46   100 1   
    96    46   101 1   
    97    46   102 1   
    98    47    48 1   
    99    47    57 1   
   100    47   103 1   
   101    48    49 1   
   102    48   104 1   
   103    48   105 1   
   104    49    50 1   
   105    49    52 1   
   106    49   106 1   
   107    50    51 1   
   108    50    54 1   
   109    50   107 1   
   110    51    57 1   
   111    51   108 1   
   112    51   109 1   
   113    52    53 1   
   114    53   110 1   
   115    53   111 1   
   116    53   112 1   
   117    54    55 1   
   118    54   113 1   
   119    55    56 1   
   120    55   114 1   
   121    55   115 1   
   122    56   116 1   
   123    56   117 1   
   124    56   118 1   
@<TRIPOS>SUBSTRUCTURE
     1 CCI         1 TEMP              0 ****  ****    0 ROOT
