@<TRIPOS>MOLECULE
CCI
  120   124     1     0     0
SMALL
No Charge or Current Charge


@<TRIPOS>ATOM
      1 C1D         -9.1870    -1.2400    -0.4320 c6         1 CCI       0.369300
      2 C2D        -10.1780    -1.6590     0.7100 c6         1 CCI       0.113300
      3 C3D        -11.1870    -0.4840     0.9430 c6         1 CCI       0.182300
      4 C4D        -11.9090    -0.1280    -0.3930 c6         1 CCI       0.149300
      5 C5D        -10.8470     0.2050    -1.4860 c6         1 CCI       0.135300
      6 C6D        -11.4680     0.4450    -2.8860 c3         1 CCI      -0.090100
      7 OCD         -8.3780    -0.1130    -0.0330 os         1 CCI      -0.389100
      8 O2D        -10.8850    -2.8920     0.4050 oh         1 CCI      -0.692000
      9 O3D        -12.1780    -0.7630     1.9700 os         1 CCI      -0.425000
     10 O4D        -12.8390     0.9580    -0.1920 oh         1 CCI      -0.706000
     11 OD          -9.9110    -0.8900    -1.6360 os         1 CCI      -0.441000
     12 C7D        -11.6950    -0.9900     3.3060 c3         1 CCI       0.147900
     13 C3C         -6.3930     0.9220    -0.9100 ca         1 CCI       0.162000
     14 C4C         -7.0110    -0.1570    -0.2450 ca         1 CCI       0.166100
     15 C5C         -6.2290    -1.2260     0.2550 ca         1 CCI       0.019100
     16 C6C         -4.8330    -1.2390     0.0030 ca         1 CCI       0.157100
     17 C1C         -4.2200    -0.1640    -0.6650 ca         1 CCI      -0.187600
     18 C2C         -4.9930     0.9350    -1.1170 ca         1 CCI       0.028700
     19 O5C         -6.8350    -2.2060     1.0220 os         1 CCI      -0.364100
     20 C8C         -6.4380    -2.3990     2.3930 c3         1 CCI       0.145900
     21 O6C         -4.0350    -2.3000     0.3770 os         1 CCI      -0.361100
     22 C9C         -4.3170    -3.6290    -0.1020 c3         1 CCI       0.150900
     23 C7C         -4.3450     2.1290    -1.8270 c3         1 CCI      -0.062800
     24 CBC         -2.7450    -0.2240    -0.8980 c          1 CCI       0.621300
     25 OBC         -2.2750    -0.4540    -2.0030 o          1 CCI      -0.509100
     26 SBC         -1.7300     0.1010     0.5750 ss         1 CCI      -0.287600
     27 C1B          2.7650     0.9660    -0.3890 c6         1 CCI       0.406300
     28 C2B          1.7810     1.1650    -1.5600 c6         1 CCI      -0.146400
     29 C3B          0.3270     1.2540    -1.0440 c6         1 CCI       0.173300
     30 C4B         -0.0100     0.0280    -0.1370 c6         1 CCI       0.031300
     31 C5B          1.0860    -0.1330     0.9570 c6         1 CCI       0.204300
     32 C6B          0.9190    -1.4240     1.7990 c3         1 CCI      -0.091100
     33 O3B          0.1460     2.4850    -0.3310 oh         1 CCI      -0.654000
     34 OB           2.3870    -0.2190     0.3420 os         1 CCI      -0.478000
     35 C1A          8.7970    -1.5600    -0.3190 c6         1 CCI       0.392300
     36 C2A          8.9560    -0.0070    -0.2570 c6         1 CCI       0.127300
     37 C3A          7.6440     0.6090     0.3310 c6         1 CCI       0.141300
     38 C4A          6.4030     0.1530    -0.4940 c6         1 CCI       0.113500
     39 C5A          6.3840    -1.4120    -0.5530 c6         1 CCI       0.199300
     40 C6A          5.2700    -2.0060    -1.4530 c3         1 CCI      -0.083100
     41 ORA          9.9370    -2.1630    -0.9560 os         1 CCI      -0.430000
     42 OEA         10.1270     0.3790     0.5220 os         1 CCI      -0.486000
     43 O3A          7.6910     2.0520     0.4220 oh         1 CCI      -0.728000
     44 NAB          5.1750     0.7500     0.0950 n7         1 CCI      -0.588900
     45 OA           7.6300    -1.8970    -1.0980 os         1 CCI      -0.492000
     46 CAN          9.9890    -3.5980    -0.9380 c3         1 CCI       0.149900
     47 C1E         10.8110     1.5660     0.0750 c6         1 CCI       0.388300
     48 C2E         11.7790     2.0700     1.1690 c6         1 CCI      -0.129400
     49 C3E         12.9420     1.0690     1.4020 c6         1 CCI       0.164300
     50 C4E         13.6520     0.7380     0.0530 c6         1 CCI       0.142500
     51 C5E         12.5870     0.2690    -0.9790 c6         1 CCI       0.158600
     52 O3E         13.9090     1.5820     2.3550 os         1 CCI      -0.466000
     53 C6E         13.4690     1.7700     3.7140 c3         1 CCI       0.149900
     54 N4E         14.7480    -0.2530     0.2520 n7         1 CCI      -0.863400
     55 C7E         15.7070    -0.4280    -0.8520 c3         1 CCI       0.159800
     56 C8E         16.7820    -1.4520    -0.4530 c3         1 CCI      -0.093100
     57 OE          11.5470     1.2660    -1.1290 os         1 CCI      -0.462000
     58 H1D         -8.5400    -2.0990    -0.6590 h2         1 CCI       0.085700
     59 H2D         -9.5840    -1.7900     1.6260 h1         1 CCI       0.054700
     60 H3D        -10.6160     0.4000     1.2640 h1         1 CCI       0.062700
     61 H4D        -12.4590    -1.0220    -0.7250 h1         1 CCI       0.068700
     62 H5D        -10.2990     1.1120    -1.1940 h1         1 CCI       0.064700
     63 H6D1       -12.1440     1.3070    -2.8770 hc         1 CCI       0.046367
     64 H6D2       -10.6890     0.6460    -3.6300 hc         1 CCI       0.046367
     65 H6D3       -12.0410    -0.4280    -3.2220 hc         1 CCI       0.046367
     66 HOD2       -10.2500    -3.6370     0.5200 ho         1 CCI       0.504000
     67 HOD4       -13.3110     0.7480     0.6490 ho         1 CCI       0.505000
     68 H7D1       -11.0850    -1.9010     3.3570 h1         1 CCI       0.027700
     69 H7D2       -11.0880    -0.1430     3.6510 h1         1 CCI       0.027700
     70 H7D3       -12.5380    -1.1100     3.9980 h1         1 CCI       0.027700
     71 H8C1        -7.0450    -3.1860     2.8560 h1         1 CCI       0.044700
     72 H8C2        -5.3850    -2.6930     2.4710 h1         1 CCI       0.044700
     73 H8C3        -6.5810    -1.4750     2.9670 h1         1 CCI       0.044700
     74 H9C1        -3.5470    -4.3280     0.2470 h1         1 CCI       0.047033
     75 H9C2        -5.2870    -3.9920     0.2550 h1         1 CCI       0.047033
     76 H9C3        -4.3230    -3.6490    -1.1990 h1         1 CCI       0.047033
     77 H7C1        -4.6370     3.0740    -1.3530 hc         1 CCI       0.061367
     78 H7C2        -3.2510     2.1080    -1.8100 hc         1 CCI       0.061367
     79 H7C3        -4.6520     2.1710    -2.8780 hc         1 CCI       0.061367
     80 H1B          2.7340     1.8410     0.2780 h2         1 CCI       0.040700
     81 H2B1         2.0450     2.0700    -2.1210 hc         1 CCI       0.068700
     82 H2B2         1.8740     0.3230    -2.2590 hc         1 CCI       0.068700
     83 H3B         -0.3440     1.2390    -1.9160 h1         1 CCI       0.051700
     84 H4B          0.0270    -0.8750    -0.7630 h1         1 CCI       0.099700
     85 H5B          1.0670     0.7320     1.6370 h1         1 CCI       0.058700
     86 H6B1         0.8910    -2.3150     1.1610 hc         1 CCI       0.051033
     87 H6B2         1.7510    -1.5400     2.5040 hc         1 CCI       0.051033
     88 H6B3        -0.0050    -1.4020     2.3880 hc         1 CCI       0.051033
     89 HOB3         0.1200     3.2040    -1.0000 ho         1 CCI       0.446000
     90 H1A          8.6920    -1.9590     0.7010 h2         1 CCI       0.026700
     91 H2A          9.0810     0.3420    -1.2920 h1         1 CCI       0.088700
     92 H3A          7.5220     0.1950     1.3440 h1         1 CCI       0.053700
     93 H4A          6.5250     0.5380    -1.5180 h1         1 CCI       0.075700
     94 H5A          6.2610    -1.8200     0.4610 h1         1 CCI       0.044700
     95 H6A1         5.2790    -1.5530    -2.4500 hc         1 CCI       0.052367
     96 H6A2         5.3980    -3.0880    -1.5720 hc         1 CCI       0.052367
     97 H6A3         4.2790    -1.8460    -1.0150 hc         1 CCI       0.052367
     98 HOA3         8.1500     2.2670     1.2670 ho         1 CCI       0.514000
     99 HAB          5.4040     1.7390     0.2810 hn         1 CCI       0.410000
    100 HAN1        10.9090    -3.9520    -1.4210 h1         1 CCI       0.035033
    101 HAN2         9.9770    -3.9760     0.0920 h1         1 CCI       0.035033
    102 HAN3         9.1350    -4.0300    -1.4770 h1         1 CCI       0.035033
    103 H1E         10.0830     2.3620    -0.1390 h2         1 CCI       0.074700
    104 H2E1        12.1810     3.0480     0.8730 hc         1 CCI       0.062200
    105 H2E2        11.2110     2.2280     2.0950 hc         1 CCI       0.062200
    106 H3E         12.5250     0.1330     1.8050 h1         1 CCI       0.061700
    107 H4E         14.0980     1.6720    -0.3220 h1         1 CCI       0.041700
    108 H5E1        13.0590     0.1070    -1.9570 h1         1 CCI       0.065200
    109 H5E2        12.1440    -0.6850    -0.6580 h1         1 CCI       0.065200
    110 H6E1        14.3150     2.0590     4.3490 h1         1 CCI       0.029367
    111 H6E2        12.7130     2.5620     3.7810 h1         1 CCI       0.029367
    112 H6E3        13.0410     0.8420     4.1170 h1         1 CCI       0.029367
    113 HNE2        15.2770     0.0580     1.0780 hn         1 CCI       0.424000
    114 H7E1        15.1970    -0.7840    -1.7570 h1         1 CCI       0.028200
    115 H7E2        16.1950     0.5260    -1.0920 h1         1 CCI       0.028200
    116 H8E1        17.4970    -1.5880    -1.2720 hc         1 CCI       0.037367
    117 H8E2        17.3350    -1.1120     0.4320 hc         1 CCI       0.037367
    118 H8E3        16.3280    -2.4250    -0.2290 hc         1 CCI       0.037367
    119 I           -7.6350     2.5810    -1.6240 i          1 CCI      -0.279000
    120 OAB          4.1070     0.8020    -0.9060 os         1 CCI      -0.266300
@<TRIPOS>BOND
     1     1     2 1   
     2     1     7 1   
     3     1    11 1   
     4     1    58 1   
     5     2     3 1   
     6     2     8 1   
     7     2    59 1   
     8     3     4 1   
     9     3     9 1   
    10     3    60 1   
    11     4     5 1   
    12     4    10 1   
    13     4    61 1   
    14     5     6 1   
    15     5    11 1   
    16     5    62 1   
    17     6    63 1   
    18     6    64 1   
    19     6    65 1   
    20     7    14 1   
    21     8    66 1   
    22     9    12 1   
    23    10    67 1   
    24    12    68 1   
    25    12    69 1   
    26    12    70 1   
    27    13    14 ar  
    28    13    18 ar  
    29    13   119 1   
    30    14    15 ar  
    31    15    16 ar  
    32    15    19 1   
    33    16    17 ar  
    34    16    21 1   
    35    17    18 ar  
    36    17    24 1   
    37    18    23 1   
    38    19    20 1   
    39    20    71 1   
    40    20    72 1   
    41    20    73 1   
    42    21    22 1   
    43    22    74 1   
    44    22    75 1   
    45    22    76 1   
    46    23    77 1   
    47    23    78 1   
    48    23    79 1   
    49    24    25 2   
    50    24    26 1   
    51    26    30 1   
    52    27    28 1   
    53    27    34 1   
    54    27    80 1   
    55    27   120 1   
    56    28    29 1   
    57    28    81 1   
    58    28    82 1   
    59    29    30 1   
    60    29    33 1   
    61    29    83 1   
    62    30    31 1   
    63    30    84 1   
    64    31    32 1   
    65    31    34 1   
    66    31    85 1   
    67    32    86 1   
    68    32    87 1   
    69    32    88 1   
    70    33    89 1   
    71    35    36 1   
    72    35    41 1   
    73    35    45 1   
    74    35    90 1   
    75    36    37 1   
    76    36    42 1   
    77    36    91 1   
    78    37    38 1   
    79    37    43 1   
    80    37    92 1   
    81    38    39 1   
    82    38    44 1   
    83    38    93 1   
    84    39    40 1   
    85    39    45 1   
    86    39    94 1   
    87    40    95 1   
    88    40    96 1   
    89    40    97 1   
    90    41    46 1   
    91    42    47 1   
    92    43    98 1   
    93    44    99 1   
    94    44   120 1   
    95    46   100 1   
    96    46   101 1   
    97    46   102 1   
    98    47    48 1   
    99    47    57 1   
   100    47   103 1   
   101    48    49 1   
   102    48   104 1   
   103    48   105 1   
   104    49    50 1   
   105    49    52 1   
   106    49   106 1   
   107    50    51 1   
   108    50    54 1   
   109    50   107 1   
   110    51    57 1   
   111    51   108 1   
   112    51   109 1   
   113    52    53 1   
   114    53   110 1   
   115    53   111 1   
   116    53   112 1   
   117    54    55 1   
   118    54   113 1   
   119    55    56 1   
   120    55   114 1   
   121    55   115 1   
   122    56   116 1   
   123    56   117 1   
   124    56   118 1   
@<TRIPOS>SUBSTRUCTURE
     1 CCI         1 TEMP              0 ****  ****    0 ROOT
