@<TRIPOS>MOLECULE
CCK
   47    50     1     0     0
SMALL
abcg2


@<TRIPOS>ATOM
      1 N1           1.2000    -3.9880     0.1500 nb         1 CCK      -0.612000
      2 C2          -0.1000    -3.8220    -0.0020 ca         1 CCK       0.239900
      3 C3          -0.6480    -2.5350     0.0590 ca         1 CCK       0.468500
      4 N4           0.1110    -1.4730     0.2420 nb         1 CCK      -0.743000
      5 C5           1.4130    -1.6530     0.3820 ca         1 CCK       0.477500
      6 C6           1.9710    -2.9320     0.3480 ca         1 CCK       0.230900
      7 N13         -2.0090    -2.3290    -0.0750 na         1 CCK       0.051100
      8 N15          2.1840    -0.5180     0.5720 na         1 CCK      -0.007500
      9 C17         -2.7180    -1.1500    -0.1790 ca         1 CCK       0.049800
     10 C18         -4.0630    -1.5390    -0.2840 ca         1 CCK      -0.291900
     11 C19         -4.0410    -2.9590    -0.2360 cc         1 CCK       0.386800
     12 N20         -2.8300    -3.4110    -0.1160 nd         1 CCK      -0.525100
     13 C26          3.5620    -0.4450     0.4970 cc         1 CCK      -0.237000
     14 C27          3.9500     0.8360     0.7520 cd         1 CCK      -0.022300
     15 C28          2.7550     1.5790     1.0040 cd         1 CCK      -0.128000
     16 C29          1.6970     0.7310     0.8870 cc         1 CCK      -0.198000
     17 C35         -5.0530    -0.5630    -0.4060 ca         1 CCK      -0.010000
     18 C36         -4.6910     0.7620    -0.4310 ca         1 CCK      -0.207000
     19 C37         -3.3280     1.1570    -0.3460 ca         1 CCK       0.357000
     20 C38         -2.3310     0.1840    -0.2070 ca         1 CCK      -0.199000
     21 N44         -2.9630     2.4700    -0.4380 nu         1 CCK      -0.955200
     22 C46         -3.8630     3.5930    -0.2390 c3         1 CCK       0.229500
     23 C48         -4.2710     3.7620     1.2220 c3         1 CCK      -0.113100
     24 C51         -3.2000     4.8510    -0.7800 c3         1 CCK      -0.113100
     25 C57          5.3450     1.3530     0.7810 c3         1 CCK      -0.166100
     26 C59          5.6860     2.4140    -0.2930 c          1 CCK       0.724000
     27 O61          4.7800     2.7790    -1.0630 o          1 CCK      -0.729000
     28 O63          6.8670     2.8160    -0.2830 o          1 CCK      -0.729000
     29 H2          -0.7120    -4.6970    -0.1660 h4         1 CCK       0.048100
     30 H6           3.0290    -3.1050     0.4890 h4         1 CCK       0.043100
     31 H19         -4.8760    -3.6420    -0.2870 h4         1 CCK       0.041800
     32 H26          4.1630    -1.3040     0.2430 h4         1 CCK       0.138000
     33 H28          2.6920     2.6270     1.2490 ha         1 CCK       0.138000
     34 H29          0.6430     0.9010     1.0190 h4         1 CCK       0.139000
     35 H35         -6.0970    -0.8400    -0.4800 ha         1 CCK       0.108000
     36 H36         -5.4660     1.5090    -0.5250 ha         1 CCK       0.110000
     37 H38         -1.2950     0.4750    -0.1340 ha         1 CCK       0.155000
     38 HN44        -2.0010     2.6610    -0.1990 hn         1 CCK       0.482000
     39 H46         -4.7610     3.4130    -0.8360 h1         1 CCK       0.053700
     40 H48         -3.4050     4.0140     1.8370 hc         1 CCK       0.042200
     41 H48A        -5.0040     4.5630     1.3300 hc         1 CCK       0.042200
     42 H48B        -4.7160     2.8510     1.6240 hc         1 CCK       0.042200
     43 H51         -2.9360     4.7370    -1.8310 hc         1 CCK       0.042200
     44 H51A        -3.8740     5.7020    -0.6890 hc         1 CCK       0.042200
     45 H51B        -2.2910     5.0890    -0.2230 hc         1 CCK       0.042200
     46 H57          5.5570     1.7950     1.7610 hc         1 CCK       0.031200
     47 H57A         6.0500     0.5220     0.6830 hc         1 CCK       0.031200
@<TRIPOS>BOND
     1     1     2 ar  
     2     1     6 ar  
     3     2     3 ar  
     4     2    29 1   
     5     3     4 ar  
     6     3     7 1   
     7     4     5 ar  
     8     5     6 ar  
     9     5     8 1   
    10     6    30 1   
    11     7     9 1   
    12     7    12 1   
    13     8    13 1   
    14     8    16 1   
    15     9    10 ar  
    16     9    20 ar  
    17    10    11 1   
    18    10    17 ar  
    19    11    12 2   
    20    11    31 1   
    21    13    14 2   
    22    13    32 1   
    23    14    15 1   
    24    14    25 1   
    25    15    16 2   
    26    15    33 1   
    27    16    34 1   
    28    17    18 ar  
    29    17    35 1   
    30    18    19 ar  
    31    18    36 1   
    32    19    20 ar  
    33    19    21 1   
    34    20    37 1   
    35    21    22 1   
    36    21    38 1   
    37    22    23 1   
    38    22    24 1   
    39    22    39 1   
    40    23    40 1   
    41    23    41 1   
    42    23    42 1   
    43    24    43 1   
    44    24    44 1   
    45    24    45 1   
    46    25    26 1   
    47    25    46 1   
    48    25    47 1   
    49    26    27 1   
    50    26    28 1   
@<TRIPOS>SUBSTRUCTURE
     1 CCK         1 TEMP              0 ****  ****    0 ROOT
