@<TRIPOS>MOLECULE
CCK
   47    50     1     0     0
SMALL
No Charge or Current Charge


@<TRIPOS>ATOM
      1 N1           1.1430    -3.4100    -1.0360 nb         1 CCK      -0.612000
      2 C2          -0.1760    -3.2550    -0.7350 ca         1 CCK       0.239900
      3 C3          -0.6670    -2.2470     0.1450 ca         1 CCK       0.468500
      4 N4           0.2010    -1.3700     0.7390 nb         1 CCK      -0.743000
      5 C5           1.5350    -1.4960     0.4580 ca         1 CCK       0.477500
      6 C6           1.9800    -2.5240    -0.4310 ca         1 CCK       0.230900
      7 N13         -2.0540    -2.2230     0.3510 na         1 CCK       0.051100
      8 N15          2.5120    -0.6470     1.0090 na         1 CCK      -0.007500
      9 C17         -2.8520    -1.1350     0.0540 ca         1 CCK       0.049800
     10 C18         -4.1220    -1.4960     0.3720 ca         1 CCK      -0.291900
     11 C19         -4.0390    -2.8480     0.8720 cc         1 CCK       0.386800
     12 N20         -2.7780    -3.3100     0.8610 nd         1 CCK      -0.525100
     13 C26          3.6450    -0.2000     0.3240 cc         1 CCK      -0.237000
     14 C27          4.3040     0.6080     1.2150 cd         1 CCK      -0.022300
     15 C28          3.5550     0.6440     2.4190 cd         1 CCK      -0.128000
     16 C29          2.4300    -0.1280     2.2980 cc         1 CCK      -0.198000
     17 C35         -5.2100    -0.6350     0.1920 ca         1 CCK      -0.010000
     18 C36         -4.9400     0.6440    -0.3380 ca         1 CCK      -0.207000
     19 C37         -3.6160     1.0280    -0.6690 ca         1 CCK       0.357000
     20 C38         -2.5520     0.1260    -0.4780 ca         1 CCK      -0.199000
     21 N44         -3.3360     2.2890    -1.1980 nu         1 CCK      -0.955200
     22 C46         -4.1130     3.5200    -1.0090 c3         1 CCK       0.229500
     23 C48         -4.0750     3.9480     0.4720 c3         1 CCK      -0.113100
     24 C51         -3.5550     4.6120    -1.9400 c3         1 CCK      -0.113100
     25 C57          5.6010     1.3380     0.9730 c3         1 CCK      -0.166100
     26 C59          5.3760     2.8440     0.7540 c          1 CCK       0.724000
     27 O61          5.3410     3.5700     1.7360 o          1 CCK      -0.729000
     28 O63          5.1320     3.2320    -0.3800 o          1 CCK      -0.729000
     29 H2          -0.8620    -3.9540    -1.2120 h4         1 CCK       0.048100
     30 H6           3.0380    -2.6470    -0.6550 h4         1 CCK       0.043100
     31 H19         -4.8100    -3.5150     1.2340 h4         1 CCK       0.041800
     32 H26          3.8810    -0.4710    -0.6980 h4         1 CCK       0.138000
     33 H28          3.8300     1.2070     3.3060 ha         1 CCK       0.138000
     34 H29          1.6210    -0.3440     2.9850 h4         1 CCK       0.139000
     35 H35         -6.2230    -0.9390     0.4470 ha         1 CCK       0.108000
     36 H36         -5.7640     1.3310    -0.4950 ha         1 CCK       0.110000
     37 H38         -1.5330     0.4020    -0.7280 ha         1 CCK       0.155000
     38 HN44        -2.3670     2.4200    -1.4870 hn         1 CCK       0.482000
     39 H46         -5.1600     3.3470    -1.2950 h1         1 CCK       0.053700
     40 H48         -3.0450     4.1300     0.8020 hc         1 CCK       0.042200
     41 H48A        -4.6500     4.8710     0.6180 hc         1 CCK       0.042200
     42 H48B        -4.5120     3.1750     1.1150 hc         1 CCK       0.042200
     43 H51         -3.6100     4.2930    -2.9870 hc         1 CCK       0.042200
     44 H51A        -4.1380     5.5350    -1.8380 hc         1 CCK       0.042200
     45 H51B        -2.5090     4.8410    -1.7000 hc         1 CCK       0.042200
     46 H57          6.2130     1.1810     1.8690 hc         1 CCK       0.031200
     47 H57A         6.0430     0.8970     0.0710 hc         1 CCK       0.031200
@<TRIPOS>BOND
     1     1     2 ar  
     2     1     6 ar  
     3     2     3 ar  
     4     2    29 1   
     5     3     4 ar  
     6     3     7 1   
     7     4     5 ar  
     8     5     6 ar  
     9     5     8 1   
    10     6    30 1   
    11     7     9 1   
    12     7    12 1   
    13     8    13 1   
    14     8    16 1   
    15     9    10 ar  
    16     9    20 ar  
    17    10    11 1   
    18    10    17 ar  
    19    11    12 2   
    20    11    31 1   
    21    13    14 2   
    22    13    32 1   
    23    14    15 1   
    24    14    25 1   
    25    15    16 2   
    26    15    33 1   
    27    16    34 1   
    28    17    18 ar  
    29    17    35 1   
    30    18    19 ar  
    31    18    36 1   
    32    19    20 ar  
    33    19    21 1   
    34    20    37 1   
    35    21    22 1   
    36    21    38 1   
    37    22    23 1   
    38    22    24 1   
    39    22    39 1   
    40    23    40 1   
    41    23    41 1   
    42    23    42 1   
    43    24    43 1   
    44    24    44 1   
    45    24    45 1   
    46    25    26 1   
    47    25    46 1   
    48    25    47 1   
    49    26    27 1   
    50    26    28 1   
@<TRIPOS>SUBSTRUCTURE
     1 CCK         1 TEMP              0 ****  ****    0 ROOT
