@<TRIPOS>MOLECULE
CCL
   39    39     1     0     0
SMALL
abcg2


@<TRIPOS>ATOM
      1 CAK          8.5280    50.2930    31.0810 c5         1 CCL      -0.091900
      2 CAG          8.8120    51.2890    32.2240 c5         1 CCL      -0.079400
      3 CAH          7.4640    51.4890    32.9160 c5         1 CCL      -0.079400
      4 CAL          6.4830    51.4220    31.7500 c5         1 CCL      -0.091900
      5 CAR          6.9970    50.2690    30.8960 c5         1 CCL       0.194300
      6 OAN          6.4120    49.0740    31.4350 os         1 CCL      -0.465100
      7 CAP          6.5610    47.9380    30.7460 c          1 CCL       0.635100
      8 OAC          7.1450    47.8570    29.6820 o          1 CCL      -0.564000
      9 NAM          5.9550    46.9130    31.3730 ns         1 CCL      -0.487900
     10 CAI          6.1330    45.5380    30.9520 c3         1 CCL       0.117000
     11 CAE          7.4510    44.9220    31.4090 c3         1 CCL      -0.108400
     12 CAF          7.5950    44.8540    32.9250 c3         1 CCL      -0.068400
     13 CB           8.9440    44.2980    33.3590 c3         1 CCL      -0.030400
     14 CA           9.1390    44.2000    34.8720 c3         1 CCL       0.021500
     15 C            8.1360    43.2280    35.5440 c          1 CCL       0.718000
     16 OXT          7.8880    42.1740    34.9250 o          1 CCL      -0.733000
     17 O            7.6990    43.5500    36.6680 o          1 CCL      -0.733000
     18 N            9.0800    45.5220    35.4820 n8         1 CCL      -1.004200
     19 HAK1         8.9040    49.2990    31.3240 hc         1 CCL       0.054200
     20 HAK2         9.0220    50.5900    30.1560 hc         1 CCL       0.054200
     21 HAG1         9.5900    50.9320    32.8990 hc         1 CCL       0.044200
     22 HAG2         9.1540    52.2420    31.8160 hc         1 CCL       0.044200
     23 HAH1         7.2680    50.6810    33.6260 hc         1 CCL       0.044200
     24 HAH2         7.4060    52.4280    33.4690 hc         1 CCL       0.044200
     25 HAL1         5.4380    51.2990    32.0390 hc         1 CCL       0.054200
     26 HAL2         6.5510    52.3420    31.1630 hc         1 CCL       0.054200
     27 HAR          6.7020    50.3690    29.8500 h1         1 CCL       0.059700
     28 HNAM         5.5750    47.0780    32.2910 hn         1 CCL       0.328500
     29 HAI1         5.2960    44.9680    31.3580 h1         1 CCL       0.047700
     30 HAI2         6.0470    45.4860    29.8660 h1         1 CCL       0.047700
     31 HAE1         7.5180    43.9130    30.9890 hc         1 CCL       0.041700
     32 HAE2         8.2830    45.4870    30.9780 hc         1 CCL       0.041700
     33 HAF1         7.4610    45.8490    33.3540 hc         1 CCL       0.052200
     34 HAF2         6.7910    44.2300    33.3290 hc         1 CCL       0.052200
     35 HB1          9.0900    43.3060    32.9240 hc         1 CCL       0.016200
     36 HB2          9.7380    44.9280    32.9410 hc         1 CCL       0.016200
     37 HA          10.1280    43.7310    35.0260 h1         1 CCL      -0.004300
     38 HN1          8.9450    45.4050    36.4770 hn         1 CCL       0.380500
     39 HN2          9.9640    45.9970    35.3550 hn         1 CCL       0.380500
@<TRIPOS>BOND
     1     1     2 1   
     2     1     5 1   
     3     1    19 1   
     4     1    20 1   
     5     2     3 1   
     6     2    21 1   
     7     2    22 1   
     8     3     4 1   
     9     3    23 1   
    10     3    24 1   
    11     4     5 1   
    12     4    25 1   
    13     4    26 1   
    14     5     6 1   
    15     5    27 1   
    16     6     7 1   
    17     7     8 2   
    18     7     9 1   
    19     9    10 1   
    20     9    28 1   
    21    10    11 1   
    22    10    29 1   
    23    10    30 1   
    24    11    12 1   
    25    11    31 1   
    26    11    32 1   
    27    12    13 1   
    28    12    33 1   
    29    12    34 1   
    30    13    14 1   
    31    13    35 1   
    32    13    36 1   
    33    14    15 1   
    34    14    18 1   
    35    14    37 1   
    36    15    16 1   
    37    15    17 1   
    38    18    38 1   
    39    18    39 1   
@<TRIPOS>SUBSTRUCTURE
     1 CCL         1 TEMP              0 ****  ****    0 ROOT
