@<TRIPOS>MOLECULE
CCL
   39    39     1     0     0
SMALL
No Charge or Current Charge


@<TRIPOS>ATOM
      1 CAK          8.5480    50.2510    31.4560 c5         1 CCL      -0.091900
      2 CAG          8.7200    51.5940    32.2160 c5         1 CCL      -0.079400
      3 CAH          7.3280    51.7420    32.8700 c5         1 CCL      -0.079400
      4 CAL          6.4230    51.5280    31.6310 c5         1 CCL      -0.091900
      5 CAR          7.0720    50.2990    30.9210 c5         1 CCL       0.194300
      6 OAN          6.3690    49.1210    31.3950 os         1 CCL      -0.465100
      7 CAP          6.6840    47.9620    30.7430 c          1 CCL       0.635100
      8 OAC          7.4230    47.8470    29.7770 o          1 CCL      -0.564000
      9 NAM          5.9890    46.9410    31.3230 ns         1 CCL      -0.487900
     10 CAI          6.0760    45.5360    30.9240 c3         1 CCL       0.117000
     11 CAE          7.3920    44.8610    31.3720 c3         1 CCL      -0.108400
     12 CAF          7.5930    44.8280    32.9060 c3         1 CCL      -0.068400
     13 CB           8.8950    44.1030    33.3270 c3         1 CCL      -0.030400
     14 CA           9.1420    44.0220    34.8600 c3         1 CCL       0.021500
     15 C            8.0420    43.1150    35.5720 c          1 CCL       0.718000
     16 OXT          8.2390    41.9080    35.6170 o          1 CCL      -0.733000
     17 O            7.1070    43.6530    36.1550 o          1 CCL      -0.733000
     18 N            9.4130    45.3920    35.4380 n8         1 CCL      -1.004200
     19 HAK1         8.7070    49.4030    32.1330 hc         1 CCL       0.054200
     20 HAK2         9.2740    50.1490    30.6430 hc         1 CCL       0.054200
     21 HAG1         9.5290    51.5540    32.9540 hc         1 CCL       0.044200
     22 HAG2         8.9390    52.4230    31.5320 hc         1 CCL       0.044200
     23 HAH1         7.1530    50.9830    33.6430 hc         1 CCL       0.044200
     24 HAH2         7.1820    52.7260    33.3300 hc         1 CCL       0.044200
     25 HAL1         5.3750    51.3570    31.9020 hc         1 CCL       0.054200
     26 HAL2         6.4410    52.4060    30.9750 hc         1 CCL       0.054200
     27 HAR          6.9970    50.3790    29.8270 h1         1 CCL       0.059700
     28 HNAM         5.4020    47.1960    32.1060 hn         1 CCL       0.328500
     29 HAI1         5.2230    44.9960    31.3570 h1         1 CCL       0.047700
     30 HAI2         5.9900    45.4740    29.8310 h1         1 CCL       0.047700
     31 HAE1         7.3990    43.8330    30.9890 hc         1 CCL       0.041700
     32 HAE2         8.2400    45.3750    30.9040 hc         1 CCL       0.041700
     33 HAF1         7.6110    45.8550    33.2920 hc         1 CCL       0.052200
     34 HAF2         6.7310    44.3290    33.3660 hc         1 CCL       0.052200
     35 HB1          8.8760    43.0820    32.9250 hc         1 CCL       0.016200
     36 HB2          9.7500    44.6020    32.8530 hc         1 CCL       0.016200
     37 HA          10.0900    43.4820    34.9870 h1         1 CCL      -0.004300
     38 HN1          9.6820    45.2940    36.4240 hn         1 CCL       0.380500
     39 HN2         10.2470    45.7900    34.9910 hn         1 CCL       0.380500
@<TRIPOS>BOND
     1     1     2 1   
     2     1     5 1   
     3     1    19 1   
     4     1    20 1   
     5     2     3 1   
     6     2    21 1   
     7     2    22 1   
     8     3     4 1   
     9     3    23 1   
    10     3    24 1   
    11     4     5 1   
    12     4    25 1   
    13     4    26 1   
    14     5     6 1   
    15     5    27 1   
    16     6     7 1   
    17     7     8 2   
    18     7     9 1   
    19     9    10 1   
    20     9    28 1   
    21    10    11 1   
    22    10    29 1   
    23    10    30 1   
    24    11    12 1   
    25    11    31 1   
    26    11    32 1   
    27    12    13 1   
    28    12    33 1   
    29    12    34 1   
    30    13    14 1   
    31    13    35 1   
    32    13    36 1   
    33    14    15 1   
    34    14    18 1   
    35    14    37 1   
    36    15    16 1   
    37    15    17 1   
    38    18    38 1   
    39    18    39 1   
@<TRIPOS>SUBSTRUCTURE
     1 CCL         1 TEMP              0 ****  ****    0 ROOT
