@<TRIPOS>MOLECULE
CCM
   20    20     1     0     0
SMALL
bcc


@<TRIPOS>ATOM
      1 CH2          1.1530     1.4950     0.1930 c3         1 CCM      -0.056100
      2 CA           0.2030     0.3040     0.0110 c5         1 CCM      -0.175000
      3 CB1         -0.9480     0.6920    -0.9390 c5         1 CCM      -0.054400
      4 CB2          0.9430    -0.8490    -0.7250 c5         1 CCM      -0.054400
      5 CG1         -0.4960     0.2310    -2.3210 c5         1 CCM      -0.083400
      6 CG2          0.1610    -1.1120    -2.0170 c5         1 CCM      -0.083400
      7 C           -0.2740    -0.0930     1.4270 c          1 CCM       0.934600
      8 O           -1.4000     0.3040     1.7910 o          1 CCM      -0.842300
      9 OXT          0.5290    -0.7470     2.1260 o          1 CCM      -0.842300
     10 HH21         0.6640     2.3190     0.7190 hc         1 CCM       0.012367
     11 HH22         2.0370     1.2080     0.7650 hc         1 CCM       0.012367
     12 HH23         1.4980     1.8770    -0.7710 hc         1 CCM       0.012367
     13 HB11        -1.8590     0.1580    -0.6620 hc         1 CCM       0.037450
     14 HB12        -1.1850     1.7570    -0.8970 hc         1 CCM       0.037450
     15 HB21         1.9660    -0.5470    -0.9690 hc         1 CCM       0.037450
     16 HB22         1.0280    -1.7410    -0.1050 hc         1 CCM       0.037450
     17 HG11        -1.3160     0.1590    -3.0390 hc         1 CCM       0.016950
     18 HG12         0.2390     0.9220    -2.7430 hc         1 CCM       0.016950
     19 HG21        -0.6150    -1.8630    -1.8460 hc         1 CCM       0.016950
     20 HG22         0.7900    -1.4840    -2.8280 hc         1 CCM       0.016950
@<TRIPOS>BOND
     1     1     2 1   
     2     1    10 1   
     3     1    11 1   
     4     1    12 1   
     5     2     3 1   
     6     2     4 1   
     7     2     7 1   
     8     3     5 1   
     9     3    13 1   
    10     3    14 1   
    11     4     6 1   
    12     4    15 1   
    13     4    16 1   
    14     5     6 1   
    15     5    17 1   
    16     5    18 1   
    17     6    19 1   
    18     6    20 1   
    19     7     8 1   
    20     7     9 1   
@<TRIPOS>SUBSTRUCTURE
     1 CCM         1 TEMP              0 ****  ****    0 ROOT
