@<TRIPOS>MOLECULE
CCM
   20    20     1     0     0
SMALL
No Charge or Current Charge


@<TRIPOS>ATOM
      1 CH2          1.2760     1.4510    -0.1300 c3         1 CCM      -0.056100
      2 CA           0.2320     0.3100     0.0430 c5         1 CCM      -0.175000
      3 CB1         -1.0920     0.5200    -0.7610 c5         1 CCM      -0.054400
      4 CB2          0.6600    -1.0550    -0.5860 c5         1 CCM      -0.054400
      5 CG1         -0.6720     0.2240    -2.2300 c5         1 CCM      -0.083400
      6 CG2          0.4860    -0.8180    -2.1150 c5         1 CCM      -0.083400
      7 C           -0.0840     0.1280     1.5710 c          1 CCM       0.724000
      8 O           -1.0210     0.7370     2.0680 o          1 CCM      -0.737000
      9 OXT          0.5580    -0.6830     2.2250 o          1 CCM      -0.737000
     10 HH21         0.8920     2.3950     0.2750 hc         1 CCM       0.012367
     11 HH22         2.2030     1.2160     0.4060 hc         1 CCM       0.012367
     12 HH23         1.5390     1.6280    -1.1790 hc         1 CCM       0.012367
     13 HB11        -1.8720    -0.1800    -0.4380 hc         1 CCM       0.037450
     14 HB12        -1.5030     1.5300    -0.6450 hc         1 CCM       0.037450
     15 HB21         1.6870    -1.3390    -0.3270 hc         1 CCM       0.037450
     16 HB22         0.0100    -1.8730    -0.2500 hc         1 CCM       0.037450
     17 HG11        -1.5140    -0.1610    -2.8180 hc         1 CCM       0.016950
     18 HG12        -0.3270     1.1340    -2.7350 hc         1 CCM       0.016950
     19 HG21         0.2530    -1.7500    -2.6420 hc         1 CCM       0.016950
     20 HG22         1.4070    -0.4260    -2.5620 hc         1 CCM       0.016950
@<TRIPOS>BOND
     1     1     2 1   
     2     1    10 1   
     3     1    11 1   
     4     1    12 1   
     5     2     3 1   
     6     2     4 1   
     7     2     7 1   
     8     3     5 1   
     9     3    13 1   
    10     3    14 1   
    11     4     6 1   
    12     4    15 1   
    13     4    16 1   
    14     5     6 1   
    15     5    17 1   
    16     5    18 1   
    17     6    19 1   
    18     6    20 1   
    19     7     8 1   
    20     7     9 1   
@<TRIPOS>SUBSTRUCTURE
     1 CCM         1 TEMP              0 ****  ****    0 ROOT
