@<TRIPOS>MOLECULE
CCN
    6     5     1     0     0
SMALL
No Charge or Current Charge


@<TRIPOS>ATOM
      1 N           -1.3700     0.0180     0.0730 n1         1 CCN      -0.464000
      2 C1          -0.2050    -0.0100     0.0470 c1         1 CCN       0.297900
      3 C2           1.2570    -0.0280    -0.0160 c3         1 CCN      -0.036000
      4 H21          1.6770    -0.0720     0.9940 hc         1 CCN       0.067033
      5 H22          1.5990    -0.9040    -0.5790 hc         1 CCN       0.067033
      6 H23          1.6240     0.8760    -0.5130 hc         1 CCN       0.067033
@<TRIPOS>BOND
     1     1     2 3   
     2     2     3 1   
     3     3     4 1   
     4     3     5 1   
     5     3     6 1   
@<TRIPOS>SUBSTRUCTURE
     1 CCN         1 TEMP              0 ****  ****    0 ROOT
