@<TRIPOS>MOLECULE
CCN
    6     5     1     0     0
SMALL
bcc


@<TRIPOS>ATOM
      1 N           -1.3450     0.0130     0.0800 n1         1 CCN      -0.374800
      2 C1          -0.1960    -0.0050     0.0380 c1         1 CCN       0.208700
      3 C2           1.2520    -0.0280    -0.0180 c3         1 CCN      -0.036000
      4 H21          1.6620    -0.0720     0.9900 hc         1 CCN       0.067033
      5 H22          1.5900    -0.8990    -0.5750 hc         1 CCN       0.067033
      6 H23          1.6190     0.8710    -0.5090 hc         1 CCN       0.067033
@<TRIPOS>BOND
     1     1     2 3   
     2     2     3 1   
     3     3     4 1   
     4     3     5 1   
     5     3     6 1   
@<TRIPOS>SUBSTRUCTURE
     1 CCN         1 TEMP              0 ****  ****    0 ROOT
