@<TRIPOS>MOLECULE
CCR
   80    82     1     0     0
SMALL
No Charge or Current Charge


@<TRIPOS>ATOM
      1 S20         -1.8800     3.4980     0.3590 sy         1 CCR       1.124600
      2 O21         -1.9770     4.0200     1.7230 o          1 CCR      -0.542000
      3 O22         -2.4360     4.2710    -0.7530 o          1 CCR      -0.542000
      4 C11         -2.4030     1.7350     0.3250 ca         1 CCR      -0.327500
      5 C12         -2.2290     0.8890     1.4750 ca         1 CCR       0.067700
      6 C13         -2.7220    -0.4490     1.4570 ca         1 CCR      -0.150300
      7 C14         -3.3630    -0.9470     0.3070 ca         1 CCR       0.181100
      8 C15         -3.5030    -0.1300    -0.8200 ca         1 CCR      -0.232000
      9 C16         -3.0360     1.1910    -0.8350 ca         1 CCR       0.077700
     10 C17         -1.5340     1.3790     2.7620 c3         1 CCR      -0.060800
     11 C18         -2.5880    -1.3620     2.6900 c3         1 CCR      -0.030800
     12 C10         -3.2790     1.9540    -2.1410 c3         1 CCR      -0.061800
     13 O11         -3.8480    -2.2430     0.3130 os         1 CCR      -0.352100
     14 C19         -4.7020    -2.7600    -0.7230 c3         1 CCR       0.150900
     15 N23         -0.2320     3.4330     0.0660 n7         1 CCR      -0.791300
     16 C30          0.3560     2.4240    -0.8660 c3         1 CCR       0.144500
     17 C35          0.5910     1.0270    -0.1990 c          1 CCR       0.567100
     18 O36          0.9890     0.9190     0.9540 o          1 CCR      -0.636100
     19 C31          1.6990     2.9730    -1.4140 c3         1 CCR      -0.205400
     20 C32          1.4440     3.9880    -2.5330 c          1 CCR       0.728000
     21 O33          1.2340     3.5510    -3.6550 o          1 CCR      -0.726000
     22 O34          1.4600     5.1790    -2.2620 o          1 CCR      -0.726000
     23 N40          0.2890    -0.0740    -0.9780 ns         1 CCR      -0.486900
     24 C41          0.4260    -1.4860    -0.5460 c3         1 CCR       0.038700
     25 C42         -0.6030    -2.3910    -1.2970 c          1 CCR       0.599100
     26 O43         -1.1850    -1.9830    -2.2980 o          1 CCR      -0.614100
     27 C44          1.8660    -2.0350    -0.7670 c3         1 CCR      -0.044100
     28 C51          2.9610    -1.2660    -0.0390 ca         1 CCR      -0.073300
     29 C52          3.1950    -1.4920     1.3280 ca         1 CCR      -0.109500
     30 C56          3.7490    -0.3250    -0.7240 ca         1 CCR      -0.109500
     31 C53          4.2050    -0.7860     2.0040 ca         1 CCR      -0.069500
     32 C55          4.7590     0.3850    -0.0510 ca         1 CCR      -0.069500
     33 C54          5.0150     0.1520     1.3220 ca         1 CCR      -0.134900
     34 C57          6.0690     0.9230     2.0630 ce         1 CCR       0.666800
     35 N59          6.1120     1.0080     3.3290 n2         1 CCR      -0.821100
     36 N58          7.0860     1.4610     1.3520 nv         1 CCR      -1.068200
     37 N60         -0.7470    -3.7390    -0.8820 n          1 CCR      -0.402800
     38 C61         -1.5790    -4.6610    -1.7140 c6         1 CCR       0.096000
     39 C62         -1.3820    -6.1620    -1.4050 c6         1 CCR      -0.098400
     40 C63         -1.5340    -6.4460     0.0980 c6         1 CCR      -0.072400
     41 C64         -0.5180    -5.5910     0.8740 c6         1 CCR      -0.098400
     42 C65         -0.6960    -4.0850     0.5750 c6         1 CCR       0.096000
     43 H151        -3.9850    -0.5160    -1.7110 ha         1 CCR       0.115000
     44 H171        -2.2510     1.8700     3.4310 hc         1 CCR       0.054700
     45 H172        -1.0560     0.5730     3.3260 hc         1 CCR       0.054700
     46 H173        -0.7140     2.0750     2.5720 hc         1 CCR       0.054700
     47 H181        -3.2020    -2.2670     2.6350 hc         1 CCR       0.036367
     48 H182        -1.5490    -1.6890     2.8220 hc         1 CCR       0.036367
     49 H183        -2.9020    -0.8470     3.6050 hc         1 CCR       0.036367
     50 H101        -2.3710     2.4330    -2.5200 hc         1 CCR       0.061367
     51 H102        -3.6230     1.2930    -2.9450 hc         1 CCR       0.061367
     52 H103        -4.0550     2.7170    -2.0150 hc         1 CCR       0.061367
     53 H191        -5.6180    -2.1610    -0.8060 h1         1 CCR       0.037033
     54 H192        -4.1900    -2.7550    -1.6940 h1         1 CCR       0.037033
     55 H193        -4.9890    -3.7940    -0.4970 h1         1 CCR       0.037033
     56 H231         0.1460     3.2830     1.0000 hn         1 CCR       0.484000
     57 H301        -0.3040     2.2580    -1.7270 h1         1 CCR       0.108700
     58 H311         2.2480     3.4220    -0.5780 hc         1 CCR       0.037700
     59 H312         2.2040     2.1000    -1.8450 hc         1 CCR       0.037700
     60 H401        -0.0810     0.0970    -1.9070 hn         1 CCR       0.338500
     61 H411         0.1840    -1.5280     0.5220 h1         1 CCR       0.094700
     62 H441         2.0720    -2.0430    -1.8450 hc         1 CCR       0.049700
     63 H442         1.9040    -3.0860    -0.4560 hc         1 CCR       0.049700
     64 H521         2.5890    -2.2120     1.8730 ha         1 CCR       0.110500
     65 H561         3.5730    -0.1320    -1.7800 ha         1 CCR       0.110500
     66 H531         4.3600    -0.9760     3.0640 ha         1 CCR       0.128000
     67 H551         5.3310     1.1250    -0.6060 ha         1 CCR       0.128000
     68 H591         6.7970     1.7290     3.5750 hn         1 CCR       0.363400
     69 H581         7.1810     1.1070     0.4080 hn         1 CCR       0.452500
     70 H582         7.9570     1.6000     1.8500 hn         1 CCR       0.452500
     71 H611        -2.6360    -4.4080    -1.5610 h1         1 CCR       0.057200
     72 H612        -1.3590    -4.4930    -2.7780 h1         1 CCR       0.057200
     73 H621        -2.1080    -6.7570    -1.9760 hc         1 CCR       0.046200
     74 H622        -0.3850    -6.4770    -1.7430 hc         1 CCR       0.046200
     75 H631        -2.5560    -6.2140     0.4280 hc         1 CCR       0.037700
     76 H632        -1.3650    -7.5130     0.3010 hc         1 CCR       0.037700
     77 H641        -0.6220    -5.7690     1.9520 hc         1 CCR       0.046200
     78 H642         0.5020    -5.8970     0.6040 hc         1 CCR       0.046200
     79 H651         0.1250    -3.5530     1.0720 h1         1 CCR       0.057200
     80 H652        -1.6300    -3.7400     1.0410 h1         1 CCR       0.057200
@<TRIPOS>BOND
     1     1     2 2   
     2     1     3 2   
     3     1     4 1   
     4     1    15 1   
     5     4     5 ar  
     6     4     9 ar  
     7     5     6 ar  
     8     5    10 1   
     9     6     7 ar  
    10     6    11 1   
    11     7     8 ar  
    12     7    13 1   
    13     8     9 ar  
    14     8    43 1   
    15     9    12 1   
    16    10    44 1   
    17    10    45 1   
    18    10    46 1   
    19    11    47 1   
    20    11    48 1   
    21    11    49 1   
    22    12    50 1   
    23    12    51 1   
    24    12    52 1   
    25    13    14 1   
    26    14    53 1   
    27    14    54 1   
    28    14    55 1   
    29    15    16 1   
    30    15    56 1   
    31    16    17 1   
    32    16    19 1   
    33    16    57 1   
    34    17    18 2   
    35    17    23 1   
    36    19    20 1   
    37    19    58 1   
    38    19    59 1   
    39    20    21 1   
    40    20    22 1   
    41    23    24 1   
    42    23    60 1   
    43    24    25 1   
    44    24    27 1   
    45    24    61 1   
    46    25    26 2   
    47    25    37 1   
    48    27    28 1   
    49    27    62 1   
    50    27    63 1   
    51    28    29 ar  
    52    28    30 ar  
    53    29    31 ar  
    54    29    64 1   
    55    30    32 ar  
    56    30    65 1   
    57    31    33 ar  
    58    31    66 1   
    59    32    33 ar  
    60    32    67 1   
    61    33    34 1   
    62    34    35 2   
    63    34    36 1   
    64    35    68 1   
    65    36    69 1   
    66    36    70 1   
    67    37    38 1   
    68    37    42 1   
    69    38    39 1   
    70    38    71 1   
    71    38    72 1   
    72    39    40 1   
    73    39    73 1   
    74    39    74 1   
    75    40    41 1   
    76    40    75 1   
    77    40    76 1   
    78    41    42 1   
    79    41    77 1   
    80    41    78 1   
    81    42    79 1   
    82    42    80 1   
@<TRIPOS>SUBSTRUCTURE
     1 CCR         1 TEMP              0 ****  ****    0 ROOT
