@<TRIPOS>MOLECULE
CCR
   80    82     1     0     0
SMALL
bcc


@<TRIPOS>ATOM
      1 S20         -1.9080     3.1440     0.1240 sy         1 CCR       1.266200
      2 O21         -2.5510     3.9270     1.1690 o          1 CCR      -0.612800
      3 O22         -1.9620     3.6650    -1.2310 o          1 CCR      -0.612800
      4 C11         -2.5810     1.4920     0.1340 ca         1 CCR      -0.327500
      5 C12         -2.8960     0.8980     1.3770 ca         1 CCR       0.067700
      6 C13         -3.6000    -0.3050     1.4120 ca         1 CCR      -0.150300
      7 C14         -3.9450    -0.9230     0.2020 ca         1 CCR       0.181100
      8 C15         -3.5410    -0.3750    -1.0040 ca         1 CCR      -0.250000
      9 C16         -2.8540     0.8280    -1.0730 ca         1 CCR       0.077700
     10 C17         -2.5180     1.4900     2.7100 c3         1 CCR      -0.060800
     11 C18         -3.9980    -0.9340     2.7190 c3         1 CCR      -0.030800
     12 C10         -2.4630     1.2680    -2.4600 c3         1 CCR      -0.061800
     13 O11         -4.6570    -2.0580     0.2810 os         1 CCR      -0.328900
     14 C19         -5.2330    -2.5920    -0.8960 c3         1 CCR       0.127700
     15 N23         -0.3050     3.0700     0.5320 n7         1 CCR      -0.736100
     16 C30          0.5650     2.1670    -0.2060 c3         1 CCR       0.144500
     17 C35          0.4660     0.7440     0.3280 c          1 CCR       0.634100
     18 O36          0.4300     0.5310     1.5310 o          1 CCR      -0.636100
     19 C31          2.0050     2.6490    -0.0640 c3         1 CCR      -0.205400
     20 C32          2.2660     3.9660    -0.8210 c          1 CCR       0.938600
     21 O33          1.7680     4.0550    -1.9600 o          1 CCR      -0.831300
     22 O34          2.9790     4.8100    -0.2480 o          1 CCR      -0.831300
     23 N40          0.4920    -0.2190    -0.6060 ns         1 CCR      -0.553900
     24 C41          0.6030    -1.6160    -0.2860 c3         1 CCR       0.038700
     25 C42         -0.4990    -2.3900    -1.0110 c          1 CCR       0.666100
     26 O43         -0.8360    -2.0110    -2.1250 o          1 CCR      -0.614100
     27 C44          1.9670    -2.1780    -0.7350 c3         1 CCR      -0.044100
     28 C51          3.1110    -1.3170    -0.2850 ca         1 CCR      -0.073300
     29 C52          3.4460    -1.2060     1.0630 ca         1 CCR      -0.127500
     30 C56          3.8510    -0.5880    -1.2080 ca         1 CCR      -0.127500
     31 C53          4.4870    -0.3920     1.4720 ca         1 CCR      -0.087500
     32 C55          4.9010     0.2240    -0.8040 ca         1 CCR      -0.087500
     33 C54          5.2350     0.3300     0.5430 ca         1 CCR      -0.134900
     34 C57          6.3480     1.2010     1.0120 ce         1 CCR       0.666800
     35 N59          6.3390     1.6150     2.2200 n2         1 CCR      -0.821100
     36 N58          7.2780     1.5230     0.0620 nv         1 CCR      -0.957800
     37 N60         -1.0060    -3.4880    -0.4210 n          1 CCR      -0.469800
     38 C61         -1.9630    -4.3280    -1.1260 c6         1 CCR       0.096000
     39 C62         -1.3710    -5.7050    -1.3980 c6         1 CCR      -0.098400
     40 C63         -0.9050    -6.3560    -0.1010 c6         1 CCR      -0.072400
     41 C64          0.0280    -5.4280     0.6680 c6         1 CCR      -0.098400
     42 C65         -0.5980    -4.0510     0.8570 c6         1 CCR       0.096000
     43 H151        -3.7510    -0.8880    -1.9320 ha         1 CCR       0.133000
     44 H171        -3.3430     2.0640     3.1360 hc         1 CCR       0.054700
     45 H172        -2.2810     0.6940     3.4110 hc         1 CCR       0.054700
     46 H173        -1.6510     2.1380     2.6860 hc         1 CCR       0.054700
     47 H181        -4.7120    -1.7400     2.5810 hc         1 CCR       0.036367
     48 H182        -3.1340    -1.3520     3.2410 hc         1 CCR       0.036367
     49 H183        -4.4540    -0.2060     3.3900 hc         1 CCR       0.036367
     50 H101        -1.4330     1.6070    -2.5300 hc         1 CCR       0.061367
     51 H102        -2.5720     0.4250    -3.1380 hc         1 CCR       0.061367
     52 H103        -3.0940     2.0750    -2.8290 hc         1 CCR       0.061367
     53 H191        -5.8690    -1.8610    -1.4020 h1         1 CCR       0.037033
     54 H192        -4.4790    -2.9490    -1.6010 h1         1 CCR       0.037033
     55 H193        -5.8420    -3.4360    -0.5840 h1         1 CCR       0.037033
     56 H231        -0.1610     3.0220     1.5350 hn         1 CCR       0.428800
     57 H301         0.3050     2.2190    -1.2660 h1         1 CCR       0.108700
     58 H311         2.2630     2.7420     0.9930 hc         1 CCR       0.037700
     59 H312         2.6700     1.8810    -0.4720 hc         1 CCR       0.037700
     60 H401         0.4620     0.0370    -1.5810 hn         1 CCR       0.338500
     61 H411         0.5150    -1.6810     0.7960 h1         1 CCR       0.094700
     62 H441         1.9780    -2.2540    -1.8250 hc         1 CCR       0.049700
     63 H442         2.0840    -3.1950    -0.3520 hc         1 CCR       0.049700
     64 H521         2.8900    -1.7660     1.8060 ha         1 CCR       0.128500
     65 H561         3.5990    -0.6440    -2.2600 ha         1 CCR       0.128500
     66 H531         4.7350    -0.3190     2.5230 ha         1 CCR       0.146000
     67 H551         5.4360     0.7930    -1.5530 ha         1 CCR       0.146000
     68 H591         7.1650     2.1720     2.4210 hn         1 CCR       0.363400
     69 H581         7.4450     0.8670    -0.6830 hn         1 CCR       0.397300
     70 H582         8.1140     1.9890     0.3770 hn         1 CCR       0.397300
     71 H611        -2.8540    -4.4240    -0.4960 h1         1 CCR       0.057200
     72 H612        -2.2630    -3.8380    -2.0480 h1         1 CCR       0.057200
     73 H621        -2.1220    -6.3250    -1.8930 hc         1 CCR       0.046200
     74 H622        -0.5320    -5.6030    -2.0930 hc         1 CCR       0.046200
     75 H631        -1.7790    -6.5860     0.5180 hc         1 CCR       0.037700
     76 H632        -0.4090    -7.3070    -0.3050 hc         1 CCR       0.037700
     77 H641         0.2680    -5.8450     1.6480 hc         1 CCR       0.046200
     78 H642         0.9750    -5.3210     0.1300 hc         1 CCR       0.046200
     79 H651         0.0910    -3.3920     1.3740 h1         1 CCR       0.057200
     80 H652        -1.4860    -4.1290     1.4920 h1         1 CCR       0.057200
@<TRIPOS>BOND
     1     1     2 2   
     2     1     3 2   
     3     1     4 1   
     4     1    15 1   
     5     4     5 ar  
     6     4     9 ar  
     7     5     6 ar  
     8     5    10 1   
     9     6     7 ar  
    10     6    11 1   
    11     7     8 ar  
    12     7    13 1   
    13     8     9 ar  
    14     8    43 1   
    15     9    12 1   
    16    10    44 1   
    17    10    45 1   
    18    10    46 1   
    19    11    47 1   
    20    11    48 1   
    21    11    49 1   
    22    12    50 1   
    23    12    51 1   
    24    12    52 1   
    25    13    14 1   
    26    14    53 1   
    27    14    54 1   
    28    14    55 1   
    29    15    16 1   
    30    15    56 1   
    31    16    17 1   
    32    16    19 1   
    33    16    57 1   
    34    17    18 2   
    35    17    23 1   
    36    19    20 1   
    37    19    58 1   
    38    19    59 1   
    39    20    21 1   
    40    20    22 1   
    41    23    24 1   
    42    23    60 1   
    43    24    25 1   
    44    24    27 1   
    45    24    61 1   
    46    25    26 2   
    47    25    37 1   
    48    27    28 1   
    49    27    62 1   
    50    27    63 1   
    51    28    29 ar  
    52    28    30 ar  
    53    29    31 ar  
    54    29    64 1   
    55    30    32 ar  
    56    30    65 1   
    57    31    33 ar  
    58    31    66 1   
    59    32    33 ar  
    60    32    67 1   
    61    33    34 1   
    62    34    35 2   
    63    34    36 1   
    64    35    68 1   
    65    36    69 1   
    66    36    70 1   
    67    37    38 1   
    68    37    42 1   
    69    38    39 1   
    70    38    71 1   
    71    38    72 1   
    72    39    40 1   
    73    39    73 1   
    74    39    74 1   
    75    40    41 1   
    76    40    75 1   
    77    40    76 1   
    78    41    42 1   
    79    41    77 1   
    80    41    78 1   
    81    42    79 1   
    82    42    80 1   
@<TRIPOS>SUBSTRUCTURE
     1 CCR         1 TEMP              0 ****  ****    0 ROOT
