@<TRIPOS>MOLECULE
CCS
   18    17     1     0     0
SMALL
No Charge or Current Charge


@<TRIPOS>ATOM
      1 N          -17.2540    11.9500    12.3180 n8         1 CCS      -0.872800
      2 CA         -16.3070    12.0030    11.1350 c3         1 CCS       0.034500
      3 CB         -14.9680    11.2850    11.4550 c3         1 CCS       0.067700
      4 SG         -15.1630     9.4490    11.6470 ss         1 CCS      -0.357200
      5 CD         -13.3770     8.9380    11.8310 c3         1 CCS      -0.119300
      6 CE         -12.6720     9.4800    13.1030 c          1 CCS       0.928600
      7 OZ1        -12.8070     8.8680    14.1570 o          1 CCS      -0.852800
      8 OZ2        -11.9730    10.4810    13.0050 o          1 CCS      -0.852800
      9 C          -16.8470    11.5580     9.6990 c          1 CCS       0.942600
     10 O          -16.1680    11.8230     8.7100 o          1 CCS      -0.849300
     11 OXT        -17.9710    11.0690     9.5960 o          1 CCS      -0.849300
     12 H          -18.0910    12.5010    12.1020 hn         1 CCS       0.314300
     13 H2         -16.8260    12.4200    13.1200 hn         1 CCS       0.314300
     14 HA         -16.0640    13.0700    11.0350 h1         1 CCS      -0.021300
     15 HB2        -14.2520    11.4770    10.6450 h1         1 CCS       0.049200
     16 HB3        -14.5450    11.6960    12.3800 h1         1 CCS       0.049200
     17 HD2        -13.3270     7.8420    11.8560 h1         1 CCS       0.037700
     18 HD3        -12.8180     9.2790    10.9510 h1         1 CCS       0.037700
@<TRIPOS>BOND
     1     1     2 1   
     2     1    12 1   
     3     1    13 1   
     4     2     3 1   
     5     2     9 1   
     6     2    14 1   
     7     3     4 1   
     8     3    15 1   
     9     3    16 1   
    10     4     5 1   
    11     5     6 1   
    12     5    17 1   
    13     5    18 1   
    14     6     7 1   
    15     6     8 1   
    16     9    10 1   
    17     9    11 1   
@<TRIPOS>SUBSTRUCTURE
     1 CCS         1 TEMP              0 ****  ****    0 ROOT
