@<TRIPOS>MOLECULE
CCS
   18    17     1     0     0
SMALL
bcc


@<TRIPOS>ATOM
      1 N          -17.3640    11.7020    12.2020 n8         1 CCS      -0.872800
      2 CA         -16.3000    12.0320    11.2700 c3         1 CCS       0.034500
      3 CB         -14.9950    11.4060    11.7370 c3         1 CCS       0.067700
      4 SG         -15.1910     9.6120    11.9420 ss         1 CCS      -0.357200
      5 CD         -13.4800     9.0690    11.7360 c3         1 CCS      -0.119300
      6 CE         -12.4720     9.4560    12.8450 c          1 CCS       0.928600
      7 OZ1        -12.8970    10.0100    13.8720 o          1 CCS      -0.852800
      8 OZ2        -11.2920     9.1450    12.5820 o          1 CCS      -0.852800
      9 C          -16.6700    11.6230     9.8200 c          1 CCS       0.942600
     10 O          -15.7430    11.6560     8.9870 o          1 CCS      -0.849300
     11 OXT        -17.8650    11.3490     9.5970 o          1 CCS      -0.849300
     12 H          -18.2520    11.9140    11.7690 hn         1 CCS       0.314300
     13 H2         -17.2890    12.2730    13.0340 hn         1 CCS       0.314300
     14 HA         -16.1100    13.1200    11.2240 h1         1 CCS      -0.021300
     15 HB2        -14.2110    11.5910    11.0030 h1         1 CCS       0.049200
     16 HB3        -14.6750    11.8420    12.6850 h1         1 CCS       0.049200
     17 HD2        -13.5210     7.9770    11.6720 h1         1 CCS       0.037700
     18 HD3        -13.1040     9.4110    10.7680 h1         1 CCS       0.037700
@<TRIPOS>BOND
     1     1     2 1   
     2     1    12 1   
     3     1    13 1   
     4     2     3 1   
     5     2     9 1   
     6     2    14 1   
     7     3     4 1   
     8     3    15 1   
     9     3    16 1   
    10     4     5 1   
    11     5     6 1   
    12     5    17 1   
    13     5    18 1   
    14     6     7 1   
    15     6     8 1   
    16     9    10 1   
    17     9    11 1   
@<TRIPOS>SUBSTRUCTURE
     1 CCS         1 TEMP              0 ****  ****    0 ROOT
