@<TRIPOS>MOLECULE
CCT
   40    42     1     0     0
SMALL
No Charge or Current Charge


@<TRIPOS>ATOM
      1 C1           4.0660     0.8690     0.0700 ca         1 CCT      -0.068500
      2 C2           5.0640    -0.0820     0.3530 ca         1 CCT      -0.057000
      3 C3           4.7050    -1.4320     0.5270 ca         1 CCT      -0.068500
      4 C4           3.3590    -1.8250     0.4210 ca         1 CCT      -0.123500
      5 C5           2.3530    -0.8780     0.1450 ca         1 CCT       0.069000
      6 C6           2.7210     0.4730    -0.0350 ca         1 CCT      -0.123500
      7 C7          -1.2810    -2.3880    -0.2390 cc         1 CCT      -0.267600
      8 C8          -1.3550    -1.0820     0.1730 cd         1 CCT       0.240000
      9 C9          -0.0860    -0.4680     0.3540 cd         1 CCT      -0.122000
     10 C10          0.9560    -1.3020     0.0330 cc         1 CCT      -0.248000
     11 S11          0.3880    -2.8960    -0.4600 ss         1 CCT       0.285000
     12 C12          6.4390     0.3210     0.4600 cg         1 CCT       0.344000
     13 N13          7.5600     0.6400     0.5460 n1         1 CCT      -0.495000
     14 O15         -2.1900    -4.4300    -0.8520 o          1 CCT      -0.699000
     15 O16         -3.5560    -2.8680    -0.3020 o          1 CCT      -0.699000
     16 S18         -3.0390     0.8960    -0.4420 sy         1 CCT       1.163600
     17 C19         -1.6490     2.8540     1.0770 ca         1 CCT       0.045700
     18 C20         -1.8130     2.2020    -0.1750 ca         1 CCT      -0.262500
     19 C21         -0.9670     2.5480    -1.2540 ca         1 CCT      -0.025000
     20 C22          0.0200     3.5340    -1.1010 ca         1 CCT      -0.147000
     21 C23          0.1770     4.1840     0.1300 ca         1 CCT      -0.066000
     22 C24         -0.6520     3.8440     1.2090 ca         1 CCT      -0.145000
     23 O26         -4.3030     1.2300     0.2160 o          1 CCT      -0.558500
     24 O27         -3.0010     0.4310    -1.8310 o          1 CCT      -0.558500
     25 H1           4.3300     1.9150    -0.0730 ha         1 CCT       0.115000
     26 H3           5.4670    -2.1780     0.7450 ha         1 CCT       0.115000
     27 H4           3.1010    -2.8710     0.5650 ha         1 CCT       0.126500
     28 H6           1.9700     1.2220    -0.2690 ha         1 CCT       0.126500
     29 H9           0.0390     0.5420     0.7230 ha         1 CCT       0.122000
     30 H17         -3.2980    -1.0770     0.2430 hn         1 CCT       0.578000
     31 H21         -1.0660     2.0530    -2.2180 ha         1 CCT       0.140000
     32 H22          0.6640     3.7920    -1.9380 ha         1 CCT       0.108000
     33 H23          0.9430     4.9470     0.2500 ha         1 CCT       0.103000
     34 H24         -0.5130     4.3540     2.1600 ha         1 CCT       0.106000
     35 H251        -3.5280     2.8560     2.1780 hc         1 CCT       0.065700
     36 H252        -2.5010     1.4430     2.5090 hc         1 CCT       0.065700
     37 H253        -2.1050     3.0070     3.2070 hc         1 CCT       0.065700
     38 C14         -2.4210    -3.2900    -0.4820 c          1 CCT       0.742600
     39 N17         -2.5250    -0.4380     0.4270 nu         1 CCT      -0.910100
     40 C25         -2.4920     2.5200     2.3050 c3         1 CCT      -0.081800
@<TRIPOS>BOND
     1     1     2 ar  
     2     1     6 ar  
     3     1    25 1   
     4     2     3 ar  
     5     2    12 1   
     6     3     4 ar  
     7     3    26 1   
     8     4     5 ar  
     9     4    27 1   
    10     5     6 ar  
    11     5    10 1   
    12     6    28 1   
    13     7     8 2   
    14     7    11 1   
    15     7    38 1   
    16     8     9 1   
    17     8    39 1   
    18     9    10 2   
    19     9    29 1   
    20    10    11 1   
    21    12    13 3   
    22    14    38 1   
    23    15    38 1   
    24    16    18 1   
    25    16    23 2   
    26    16    24 2   
    27    16    39 1   
    28    17    18 ar  
    29    17    22 ar  
    30    17    40 1   
    31    18    19 ar  
    32    19    20 ar  
    33    19    31 1   
    34    20    21 ar  
    35    20    32 1   
    36    21    22 ar  
    37    21    33 1   
    38    22    34 1   
    39    30    39 1   
    40    35    40 1   
    41    36    40 1   
    42    37    40 1   
@<TRIPOS>SUBSTRUCTURE
     1 CCT         1 TEMP              0 ****  ****    0 ROOT
