@<TRIPOS>MOLECULE
CCT
   40    42     1     0     0
SMALL
bcc


@<TRIPOS>ATOM
      1 C1           4.5180     0.1390    -0.8280 ca         1 CCT      -0.086500
      2 C2           5.3820    -0.7700    -0.2180 ca         1 CCT      -0.057000
      3 C3           4.8680    -1.8590     0.4860 ca         1 CCT      -0.086500
      4 C4           3.5010    -2.0280     0.5810 ca         1 CCT      -0.141500
      5 C5           2.6200    -1.1280    -0.0260 ca         1 CCT       0.069000
      6 C6           3.1530    -0.0450    -0.7340 ca         1 CCT      -0.141500
      7 C7          -1.1160    -2.1950     0.3400 cc         1 CCT      -0.122700
      8 C8          -1.0950    -0.8460     0.0840 cd         1 CCT       0.101600
      9 C9           0.2160    -0.3310    -0.0670 cd         1 CCT      -0.140000
     10 C10          1.1750    -1.3000     0.0710 cc         1 CCT      -0.103100
     11 S11          0.4710    -2.8380     0.3960 ss         1 CCT      -0.004800
     12 C12          6.7930    -0.5880    -0.3160 cg         1 CCT       0.254800
     13 N13          7.9340    -0.4420    -0.3950 n1         1 CCT      -0.405800
     14 O15         -2.0750    -4.2770     0.7490 o          1 CCT      -0.804300
     15 O16         -3.4210    -2.5020     0.5170 o          1 CCT      -0.804300
     16 S18         -2.5380     1.1470    -0.9630 sy         1 CCT       1.305200
     17 C19         -2.2510     2.9270     1.1490 ca         1 CCT       0.045700
     18 C20         -1.8070     2.5300    -0.1210 ca         1 CCT      -0.262500
     19 C21         -0.8030     3.2160    -0.7950 ca         1 CCT      -0.043000
     20 C22         -0.2050     4.3190    -0.2070 ca         1 CCT      -0.165000
     21 C23         -0.6190     4.7270     1.0500 ca         1 CCT      -0.084000
     22 C24         -1.6260     4.0370     1.7100 ca         1 CCT      -0.163000
     23 O26         -3.9810     1.3150    -1.0250 o          1 CCT      -0.629300
     24 O27         -1.8020     0.9500    -2.2030 o          1 CCT      -0.629300
     25 H1           4.9130     0.9810    -1.3790 ha         1 CCT       0.133000
     26 H3           5.5330    -2.5640     0.9660 ha         1 CCT       0.133000
     27 H4           3.1220    -2.8670     1.1510 ha         1 CCT       0.144500
     28 H6           2.4980     0.6530    -1.2380 ha         1 CCT       0.144500
     29 H9           0.4490     0.7110    -0.2310 ha         1 CCT       0.140000
     30 H17         -3.0900    -0.7560     0.2000 hn         1 CCT       0.522800
     31 H21         -0.4840     2.8970    -1.7770 ha         1 CCT       0.158000
     32 H22          0.5760     4.8500    -0.7330 ha         1 CCT       0.126000
     33 H23         -0.1600     5.5850     1.5240 ha         1 CCT       0.121000
     34 H24         -1.9400     4.3670     2.6930 ha         1 CCT       0.124000
     35 H251        -4.2540     2.1440     1.3620 hc         1 CCT       0.065700
     36 H252        -3.0230     1.2130     2.1950 hc         1 CCT       0.065700
     37 H253        -3.5400     2.7670     2.8440 hc         1 CCT       0.065700
     38 C14         -2.3030    -3.0750     0.5550 c          1 CCT       0.953200
     39 N17         -2.2840    -0.1190     0.0630 nu         1 CCT      -0.716500
     40 C25         -3.3260     2.2250     1.9250 c3         1 CCT      -0.081800
@<TRIPOS>BOND
     1     1     2 ar  
     2     1     6 ar  
     3     1    25 1   
     4     2     3 ar  
     5     2    12 1   
     6     3     4 ar  
     7     3    26 1   
     8     4     5 ar  
     9     4    27 1   
    10     5     6 ar  
    11     5    10 1   
    12     6    28 1   
    13     7     8 2   
    14     7    11 1   
    15     7    38 1   
    16     8     9 1   
    17     8    39 1   
    18     9    10 2   
    19     9    29 1   
    20    10    11 1   
    21    12    13 3   
    22    14    38 1   
    23    15    38 1   
    24    16    18 1   
    25    16    23 2   
    26    16    24 2   
    27    16    39 1   
    28    17    18 ar  
    29    17    22 ar  
    30    17    40 1   
    31    18    19 ar  
    32    19    20 ar  
    33    19    31 1   
    34    20    21 ar  
    35    20    32 1   
    36    21    22 ar  
    37    21    33 1   
    38    22    34 1   
    39    30    39 1   
    40    35    40 1   
    41    36    40 1   
    42    37    40 1   
@<TRIPOS>SUBSTRUCTURE
     1 CCT         1 TEMP              0 ****  ****    0 ROOT
