@<TRIPOS>MOLECULE
CCU
   14    13     1     0     0
SMALL
abcg2


@<TRIPOS>ATOM
      1 C2          -1.6100     0.9190    -0.0730 ce         1 CCU      -0.312200
      2 C3          -0.2940     0.6500    -0.0400 cf         1 CCU      -0.171000
      3 C4           0.3320    -0.6610     0.0410 cf         1 CCU      -0.171000
      4 C6           2.8310     0.0130    -0.0060 c          1 CCU       0.705200
      5 O4           2.6380     1.2450     0.0560 o          1 CCU      -0.760500
      6 O3           3.9400    -0.5520    -0.1190 o          1 CCU      -0.760500
      7 C5           1.6490    -0.9280     0.0580 ce         1 CCU      -0.312200
      8 C1          -2.7950    -0.0210    -0.0370 c          1 CCU       0.705200
      9 O1          -2.5980    -1.2510     0.0520 o          1 CCU      -0.760500
     10 O2          -3.9090     0.5420    -0.1030 o          1 CCU      -0.760500
     11 H2          -1.8790     1.9700    -0.1400 ha         1 CCU       0.124000
     12 H3           0.3890     1.4880    -0.0770 ha         1 CCU       0.175000
     13 H4          -0.3500    -1.5000     0.0810 ha         1 CCU       0.175000
     14 H5           1.9210    -1.9790     0.1070 ha         1 CCU       0.124000
@<TRIPOS>BOND
     1     1     2 2   
     2     1     8 1   
     3     1    11 1   
     4     2     3 1   
     5     2    12 1   
     6     3     7 2   
     7     3    13 1   
     8     4     5 1   
     9     4     6 1   
    10     4     7 1   
    11     7    14 1   
    12     8     9 1   
    13     8    10 1   
@<TRIPOS>SUBSTRUCTURE
     1 CCU         1 TEMP              0 ****  ****    0 ROOT
