@<TRIPOS>MOLECULE
CCU
   14    13     1     0     0
SMALL
No Charge or Current Charge


@<TRIPOS>ATOM
      1 C2          -1.6580     0.9200    -0.0650 ce         1 CCU      -0.312200
      2 C3          -0.3130     0.6470    -0.0460 cf         1 CCU      -0.171000
      3 C4           0.3510    -0.6560     0.0180 cf         1 CCU      -0.171000
      4 C6           2.8830    -0.0120    -0.0000 c          1 CCU       0.705200
      5 O4           2.7320     1.1960    -0.0570 o          1 CCU      -0.760500
      6 O3           3.9830    -0.5390     0.0300 o          1 CCU      -0.760500
      7 C5           1.6960    -0.9290     0.0370 ce         1 CCU      -0.312200
      8 C1          -2.8450     0.0030    -0.0280 c          1 CCU       0.705200
      9 O1          -2.6940    -1.2050     0.0290 o          1 CCU      -0.760500
     10 O2          -3.9450     0.5300    -0.0580 o          1 CCU      -0.760500
     11 H2          -1.9330     1.9720    -0.1160 ha         1 CCU       0.124000
     12 H3           0.3390     1.5200    -0.0840 ha         1 CCU       0.175000
     13 H4          -0.3010    -1.5290     0.0550 ha         1 CCU       0.175000
     14 H5           1.9710    -1.9810     0.0870 ha         1 CCU       0.124000
@<TRIPOS>BOND
     1     1     2 2   
     2     1     8 1   
     3     1    11 1   
     4     2     3 1   
     5     2    12 1   
     6     3     7 2   
     7     3    13 1   
     8     4     5 1   
     9     4     6 1   
    10     4     7 1   
    11     7    14 1   
    12     8     9 1   
    13     8    10 1   
@<TRIPOS>SUBSTRUCTURE
     1 CCU         1 TEMP              0 ****  ****    0 ROOT
