@<TRIPOS>MOLECULE
CCV
   29    29     1     0     0
SMALL
bcc


@<TRIPOS>ATOM
      1 N1           1.0740     0.5660     0.7440 ns         1 CCV      -0.472100
      2 O1           2.6880     0.1730     2.2940 o          1 CCV      -0.636500
      3 O2          -1.6300    -0.5930     3.4120 o          1 CCV      -0.608500
      4 N2           0.5050    -0.1790     2.8260 ns         1 CCV      -0.602500
      5 C1           1.5140     0.1850     1.9770 c          1 CCV       0.824500
      6 C2          -0.8510    -0.2300     2.5450 c          1 CCV       0.731700
      7 C3          -1.2210     0.1700     1.2000 cc         1 CCV      -0.268400
      8 C4          -2.6680     0.1480     0.8080 c3         1 CCV      -0.025900
      9 C5          -0.2390     0.5580     0.3530 cd         1 CCV       0.104400
     10 C11         -0.4830     1.0030    -1.0540 c3         1 CCV      -0.053200
     11 C12         -0.3680    -0.1230    -2.0980 c3         1 CCV      -0.057700
     12 C13         -0.5680     0.4950    -3.4770 c3         1 CCV       0.138400
     13 C14          0.9290    -0.9100    -1.9840 c3         1 CCV       0.138400
     14 O3          -0.6000    -0.5250    -4.4470 oh         1 CCV      -0.610800
     15 O4           2.0230    -0.0130    -2.0260 oh         1 CCV      -0.610800
     16 H1           1.7780     0.7760     0.0450 hn         1 CCV       0.362500
     17 H2           0.7870    -0.4600     3.7560 hn         1 CCV       0.343500
     18 H43         -3.2800    -0.2240     1.6260 hc         1 CCV       0.047033
     19 H42         -3.0380     1.1430     0.5540 hc         1 CCV       0.047033
     20 H41         -2.8490    -0.4970    -0.0520 hc         1 CCV       0.047033
     21 H112        -1.4810     1.4370    -1.1190 hc         1 CCV       0.068700
     22 H111         0.2140     1.8080    -1.2960 hc         1 CCV       0.068700
     23 H12         -1.1810    -0.8370    -1.9210 hc         1 CCV       0.072700
     24 H132        -1.5060     1.0670    -3.4700 h1         1 CCV       0.031700
     25 H131         0.2370     1.2140    -3.6720 h1         1 CCV       0.031700
     26 H142         0.9210    -1.4870    -1.0510 h1         1 CCV       0.031700
     27 H141         0.9820    -1.6400    -2.7980 h1         1 CCV       0.031700
     28 H3          -0.6010    -0.1130    -5.3160 ho         1 CCV       0.412000
     29 H4           2.8360    -0.5270    -2.0130 ho         1 CCV       0.412000
@<TRIPOS>BOND
     1     1     5 1   
     2     1     9 1   
     3     1    16 1   
     4     2     5 2   
     5     3     6 2   
     6     4     5 1   
     7     4     6 1   
     8     4    17 1   
     9     6     7 1   
    10     7     8 1   
    11     7     9 2   
    12     8    18 1   
    13     8    19 1   
    14     8    20 1   
    15     9    10 1   
    16    10    11 1   
    17    10    21 1   
    18    10    22 1   
    19    11    12 1   
    20    11    13 1   
    21    11    23 1   
    22    12    14 1   
    23    12    24 1   
    24    12    25 1   
    25    13    15 1   
    26    13    26 1   
    27    13    27 1   
    28    14    28 1   
    29    15    29 1   
@<TRIPOS>SUBSTRUCTURE
     1 CCV         1 TEMP              0 ****  ****    0 ROOT
