@<TRIPOS>MOLECULE
CCV
   29    29     1     0     0
SMALL
No Charge or Current Charge


@<TRIPOS>ATOM
      1 N1           1.0440     0.5560     0.8020 ns         1 CCV      -0.518600
      2 O1           2.6230     0.2020     2.3770 o          1 CCV      -0.561000
      3 O2          -1.6790    -0.5310     3.4810 o          1 CCV      -0.533000
      4 N2           0.4490    -0.1460     2.8830 ns         1 CCV      -0.468500
      5 C1           1.4540     0.2030     2.0470 c          1 CCV       0.615000
      6 C2          -0.8860    -0.1940     2.6170 c          1 CCV       0.589200
      7 C3          -1.2540     0.1920     1.2280 cc         1 CCV      -0.268400
      8 C4          -2.7340     0.1410     0.9010 c3         1 CCV      -0.025900
      9 C5          -0.2570     0.5730     0.3530 cd         1 CCV       0.104400
     10 C11         -0.4240     1.0400    -1.0770 c3         1 CCV      -0.053200
     11 C12         -0.3060    -0.0960    -2.1340 c3         1 CCV      -0.057700
     12 C13         -0.5410     0.4550    -3.5640 c3         1 CCV       0.161600
     13 C14          1.0180    -0.9060    -2.0250 c3         1 CCV       0.161600
     14 O3          -0.7220    -0.6180    -4.4990 oh         1 CCV      -0.673000
     15 O4           2.1620    -0.0370    -2.0570 oh         1 CCV      -0.673000
     16 H1           1.8020     0.7800     0.1640 hn         1 CCV       0.476000
     17 H2           0.7230    -0.4080     3.8160 hn         1 CCV       0.343500
     18 H43         -3.2240    -0.7180     1.3740 hc         1 CCV       0.047033
     19 H42         -3.2400     1.0500     1.2470 hc         1 CCV       0.047033
     20 H41         -2.9100     0.0480    -0.1760 hc         1 CCV       0.047033
     21 H112        -1.3970     1.5330    -1.1900 hc         1 CCV       0.068700
     22 H111         0.3120     1.8210    -1.3040 hc         1 CCV       0.068700
     23 H12         -1.1210    -0.8020    -1.9300 hc         1 CCV       0.072700
     24 H132        -1.4360     1.0930    -3.5590 h1         1 CCV       0.031700
     25 H131         0.3100     1.0850    -3.8580 h1         1 CCV       0.031700
     26 H142         1.0100    -1.4810    -1.0890 h1         1 CCV       0.031700
     27 H141         1.0690    -1.6360    -2.8440 h1         1 CCV       0.031700
     28 H3          -0.8620    -0.2090    -5.3820 ho         1 CCV       0.451000
     29 H4           2.9440    -0.6010    -2.2560 ho         1 CCV       0.451000
@<TRIPOS>BOND
     1     1     5 1   
     2     1     9 1   
     3     1    16 1   
     4     2     5 2   
     5     3     6 2   
     6     4     5 1   
     7     4     6 1   
     8     4    17 1   
     9     6     7 1   
    10     7     8 1   
    11     7     9 2   
    12     8    18 1   
    13     8    19 1   
    14     8    20 1   
    15     9    10 1   
    16    10    11 1   
    17    10    21 1   
    18    10    22 1   
    19    11    12 1   
    20    11    13 1   
    21    11    23 1   
    22    12    14 1   
    23    12    24 1   
    24    12    25 1   
    25    13    15 1   
    26    13    26 1   
    27    13    27 1   
    28    14    28 1   
    29    15    29 1   
@<TRIPOS>SUBSTRUCTURE
     1 CCV         1 TEMP              0 ****  ****    0 ROOT
