@<TRIPOS>MOLECULE
CCW
   32    31     1     0     0
SMALL
abcg2


@<TRIPOS>ATOM
      1 OA1          5.5110     0.3910     1.1690 o          1 CCW      -0.731000
      2 C            4.9120    -0.4890     0.5190 c          1 CCW       0.724000
      3 OA2          5.1320    -1.7160     0.5540 o          1 CCW      -0.731000
      4 CA           3.7450    -0.0070    -0.3700 c3         1 CCW       0.017500
      5 N            3.5150    -0.9380    -1.4640 n8         1 CCW      -0.984200
      6 CB           2.5210     0.2370     0.5280 c3         1 CCW      -0.100400
      7 CG           1.3630     0.9270    -0.1800 c3         1 CCW      -0.085400
      8 CD           0.1640     1.1430     0.7380 c3         1 CCW       0.128800
      9 NE          -0.8690     1.9090     0.0890 n2         1 CCW      -0.647900
     10 C1          -1.8780     1.3540    -0.4450 c2         1 CCW       0.632200
     11 NH1         -2.8900     2.1060    -0.9650 nv         1 CCW      -1.045200
     12 C2          -2.1390    -0.1340    -0.5250 c3         1 CCW      -0.387700
     13 S3          -3.3330    -0.6110     0.7360 s6         1 CCW       1.093000
     14 O6          -2.8470    -0.1200     2.0250 o          1 CCW      -0.512500
     15 O5          -4.6690    -0.2030     0.3050 o          1 CCW      -0.512500
     16 C4          -3.2510    -2.3860     0.7310 c3         1 CCW      -0.346100
     17 HA           4.0320     0.9610    -0.8010 h1         1 CCW       0.046700
     18 HN1          3.4360    -1.8690    -1.0720 hn         1 CCW       0.371500
     19 HN2          2.6300    -0.7400    -1.9130 hn         1 CCW       0.371500
     20 HB1C         2.1850    -0.7230     0.9380 hc         1 CCW       0.043700
     21 HB2C         2.8250     0.8500     1.3820 hc         1 CCW       0.043700
     22 HG1C         1.6960     1.8950    -0.5710 hc         1 CCW       0.032700
     23 HG2C         1.0360     0.3410    -1.0460 hc         1 CCW       0.032700
     24 HD1C        -0.1730     0.1740     1.1250 h1         1 CCW       0.044200
     25 HD2C         0.4950     1.7070     1.6160 h1         1 CCW       0.044200
     26 HH11        -2.6990     3.0870    -1.0880 hn         1 CCW       0.469000
     27 HH12        -3.4780     1.7020    -1.6750 hn         1 CCW       0.469000
     28 H21C        -2.5600    -0.4180    -1.4910 h1         1 CCW       0.106200
     29 H22C        -1.2380    -0.7230    -0.3650 h1         1 CCW       0.106200
     30 H41C        -2.2500    -2.7070     1.0050 h1         1 CCW       0.102367
     31 H42C        -3.9700    -2.7390     1.4690 h1         1 CCW       0.102367
     32 H43C        -3.5180    -2.7590    -0.2550 h1         1 CCW       0.102367
@<TRIPOS>BOND
     1     1     2 1   
     2     2     3 1   
     3     2     4 1   
     4     4     5 1   
     5     4     6 1   
     6     4    17 1   
     7     5    18 1   
     8     5    19 1   
     9     6     7 1   
    10     6    20 1   
    11     6    21 1   
    12     7     8 1   
    13     7    22 1   
    14     7    23 1   
    15     8     9 1   
    16     8    24 1   
    17     8    25 1   
    18     9    10 2   
    19    10    11 1   
    20    10    12 1   
    21    11    26 1   
    22    11    27 1   
    23    12    13 1   
    24    12    28 1   
    25    12    29 1   
    26    13    14 2   
    27    13    15 2   
    28    13    16 1   
    29    16    30 1   
    30    16    31 1   
    31    16    32 1   
@<TRIPOS>SUBSTRUCTURE
     1 CCW         1 TEMP              0 ****  ****    0 ROOT
