@<TRIPOS>MOLECULE
CCW
   32    31     1     0     0
SMALL
No Charge or Current Charge


@<TRIPOS>ATOM
      1 OA1          6.0190     0.4800     0.9830 o          1 CCW      -0.731000
      2 C            5.1430    -0.3200     0.6760 c          1 CCW       0.724000
      3 OA2          5.1780    -1.5030     0.9960 o          1 CCW      -0.731000
      4 CA           3.9550     0.1820    -0.2500 c3         1 CCW       0.017500
      5 N            3.8220    -0.4890    -1.5930 n8         1 CCW      -0.984200
      6 CB           2.6020     0.1310     0.5090 c3         1 CCW      -0.100400
      7 CG           1.4460     0.9030    -0.1760 c3         1 CCW      -0.085400
      8 CD           0.1430     0.8880     0.6510 c3         1 CCW       0.128800
      9 NE          -0.9050     1.6560    -0.0450 n2         1 CCW      -0.647900
     10 C1          -1.9910     1.1790    -0.5100 c2         1 CCW       0.632200
     11 NH1         -2.7930     1.9720    -1.2540 nv         1 CCW      -1.045200
     12 C2          -2.4200    -0.2420    -0.5060 c3         1 CCW      -0.387700
     13 S3          -3.3370    -0.5780     0.9830 s6         1 CCW       1.093000
     14 O6          -2.4420    -0.4200     2.1350 o          1 CCW      -0.512500
     15 O5          -4.5970     0.1730     0.9360 o          1 CCW      -0.512500
     16 C4          -3.7430    -2.3170     0.8550 c3         1 CCW      -0.346100
     17 HA           4.1640     1.2430    -0.4510 h1         1 CCW       0.046700
     18 HN1          3.7000    -1.4980    -1.4440 hn         1 CCW       0.371500
     19 HN2          2.9400    -0.1940    -2.0270 hn         1 CCW       0.371500
     20 HB1C         2.3050    -0.9150     0.6620 hc         1 CCW       0.043700
     21 HB2C         2.7540     0.5580     1.5090 hc         1 CCW       0.043700
     22 HG1C         1.7560     1.9430    -0.3400 hc         1 CCW       0.032700
     23 HG2C         1.2440     0.4670    -1.1620 hc         1 CCW       0.032700
     24 HD1C        -0.1420    -0.1560     0.8300 h1         1 CCW       0.044200
     25 HD2C         0.3430     1.3360     1.6340 h1         1 CCW       0.044200
     26 HH11        -2.3370     2.8430    -1.5010 hn         1 CCW       0.469000
     27 HH12        -3.2560     1.5060    -2.0250 hn         1 CCW       0.469000
     28 H21C        -3.0880    -0.4770    -1.3400 h1         1 CCW       0.106200
     29 H22C        -1.5690    -0.9270    -0.5280 h1         1 CCW       0.106200
     30 H41C        -2.8040    -2.8770     0.8020 h1         1 CCW       0.102367
     31 H42C        -4.3150    -2.5890     1.7490 h1         1 CCW       0.102367
     32 H43C        -4.3400    -2.4560    -0.0530 h1         1 CCW       0.102367
@<TRIPOS>BOND
     1     1     2 1   
     2     2     3 1   
     3     2     4 1   
     4     4     5 1   
     5     4     6 1   
     6     4    17 1   
     7     5    18 1   
     8     5    19 1   
     9     6     7 1   
    10     6    20 1   
    11     6    21 1   
    12     7     8 1   
    13     7    22 1   
    14     7    23 1   
    15     8     9 1   
    16     8    24 1   
    17     8    25 1   
    18     9    10 2   
    19    10    11 1   
    20    10    12 1   
    21    11    26 1   
    22    11    27 1   
    23    12    13 1   
    24    12    28 1   
    25    12    29 1   
    26    13    14 2   
    27    13    15 2   
    28    13    16 1   
    29    16    30 1   
    30    16    31 1   
    31    16    32 1   
@<TRIPOS>SUBSTRUCTURE
     1 CCW         1 TEMP              0 ****  ****    0 ROOT
