@<TRIPOS>MOLECULE
CCX
   63    67     1     0     0
SMALL
abcg2


@<TRIPOS>ATOM
      1 C1          -7.6050    -0.5680    -0.3960 ca         1 CCX      -0.110800
      2 C2          -8.8020    -1.2040     0.0150 ca         1 CCX      -0.027200
      3 C3          -7.6010     0.8080    -0.5990 ca         1 CCX      -0.011000
      4 C4          -9.9860    -0.4980     0.2290 ca         1 CCX      -0.134000
      5 C5          -8.7810     1.5120    -0.3870 ca         1 CCX      -0.059000
      6 C6          -9.9650     0.8630     0.0260 ca         1 CCX      -0.056000
      7 C7          -6.6020    -1.5840    -0.5270 cc         1 CCX      -0.125400
      8 C8          -7.2200    -2.7550    -0.1990 cd         1 CCX      -0.158100
      9 N9          -8.5330    -2.5270     0.1260 na         1 CCX      -0.218700
     10 C10         -5.1730    -1.3780    -0.9030 c3         1 CCX      -0.002200
     11 C11         -8.8000     2.9210    -0.5930 cg         1 CCX       0.331000
     12 N12         -8.8190     4.0620    -0.7590 n1         1 CCX      -0.467000
     13 C13         -4.3340    -0.7980     0.2370 c3         1 CCX      -0.076400
     14 C14         -2.8840    -0.5630    -0.1690 c3         1 CCX      -0.079400
     15 C15         -2.0240    -0.1490     1.0170 c3         1 CCX       0.168800
     16 C16          1.3830     1.3570     1.4350 c6         1 CCX      -0.092400
     17 C17          2.2350     0.2370     0.8560 c6         1 CCX       0.109700
     18 C18          0.0040     0.8360     1.8040 c6         1 CCX       0.167800
     19 C19          1.4920    -0.4170    -0.3040 c6         1 CCX      -0.092400
     20 N20         -0.6700     0.2410     0.6630 n3         1 CCX      -0.718600
     21 C21          0.1070    -0.8680     0.1340 c6         1 CCX       0.167800
     22 C24          5.9040     0.6670    -0.0230 ca         1 CCX      -0.157600
     23 C25          8.3720     1.8110    -0.8860 ca         1 CCX      -0.033000
     24 C26          8.3260     0.4980    -0.4260 ca         1 CCX      -0.078800
     25 C27          7.1970     2.5360    -0.9130 ca         1 CCX      -0.145000
     26 C28          7.1030    -0.0600    -0.0030 ca         1 CCX      -0.014200
     27 C29          5.9900     1.9720    -0.4890 ca         1 CCX      -0.064000
     28 C30          9.3140    -0.5290    -0.2610 cc         1 CCX      -0.072900
     29 C31          8.6650    -1.6330     0.2410 cd         1 CCX      -0.095100
     30 N32          7.3590    -1.3460     0.3910 na         1 CCX      -0.188700
     31 C33         10.6870    -0.4320    -0.5540 cg         1 CCX       0.325700
     32 N34         11.8090    -0.3320    -0.8050 n1         1 CCX      -0.475000
     33 O35          4.6630    -1.1650     0.8010 o          1 CCX      -0.648100
     34 H3          -6.7030     1.3240    -0.9170 ha         1 CCX       0.128000
     35 H4         -10.8930    -0.9960     0.5440 ha         1 CCX       0.120000
     36 H6         -10.8620     1.4460     0.1840 ha         1 CCX       0.123000
     37 H8          -6.8190    -3.7560    -0.1720 h4         1 CCX       0.215000
     38 HN9         -9.1910    -3.2400     0.3930 hn         1 CCX       0.354000
     39 H10         -4.7360    -2.3300    -1.2190 hc         1 CCX       0.046200
     40 H10A        -5.1140    -0.7110    -1.7700 hc         1 CCX       0.046200
     41 H13         -4.7790     0.1410     0.5820 hc         1 CCX       0.042700
     42 H13A        -4.3710    -1.4860     1.0880 hc         1 CCX       0.042700
     43 H14         -2.4980    -1.4810    -0.6230 hc         1 CCX       0.046200
     44 H14A        -2.8320     0.2110    -0.9410 hc         1 CCX       0.046200
     45 H15         -2.4970     0.7100     1.5040 h1         1 CCX       0.030200
     46 H15A        -2.0250    -0.9640     1.7640 h1         1 CCX       0.030200
     47 H16          1.8620     1.7810     2.3210 hc         1 CCX       0.054200
     48 H16A         1.2800     2.1620     0.7000 hc         1 CCX       0.054200
     49 H17          2.3960    -0.5140     1.6340 h1         1 CCX       0.075700
     50 H18          0.1010     0.1130     2.6350 h1         1 CCX       0.035200
     51 H18A        -0.6040     1.6630     2.1780 h1         1 CCX       0.035200
     52 H19          1.4030     0.3000    -1.1260 hc         1 CCX       0.054200
     53 H19A         2.0530    -1.2770    -0.6770 hc         1 CCX       0.054200
     54 H21         -0.4090    -1.2970    -0.7250 h1         1 CCX       0.035200
     55 H21A         0.2040    -1.6770     0.8810 h1         1 CCX       0.035200
     56 HN22         3.5560     1.6960     0.1150 hn         1 CCX       0.316500
     57 H25          9.3050     2.2530    -1.2150 ha         1 CCX       0.128000
     58 H27          7.2020     3.5580    -1.2680 ha         1 CCX       0.119000
     59 H29          5.1110     2.6010    -0.5430 ha         1 CCX       0.105000
     60 H31          9.0600    -2.6020     0.5000 h4         1 CCX       0.228000
     61 HN32         6.6500    -1.9760     0.7350 hn         1 CCX       0.389000
     62 N22          3.5320     0.7510     0.4600 ns         1 CCX      -0.487900
     63 C23          4.6470     0.0110     0.4420 c          1 CCX       0.627700
@<TRIPOS>BOND
     1     1     2 ar  
     2     1     3 ar  
     3     1     7 1   
     4     2     4 ar  
     5     2     9 1   
     6     3     5 ar  
     7     3    34 1   
     8     4     6 ar  
     9     4    35 1   
    10     5     6 ar  
    11     5    11 1   
    12     6    36 1   
    13     7     8 2   
    14     7    10 1   
    15     8     9 1   
    16     8    37 1   
    17     9    38 1   
    18    10    13 1   
    19    10    39 1   
    20    10    40 1   
    21    11    12 3   
    22    13    14 1   
    23    13    41 1   
    24    13    42 1   
    25    14    15 1   
    26    14    43 1   
    27    14    44 1   
    28    15    20 1   
    29    15    45 1   
    30    15    46 1   
    31    16    17 1   
    32    16    18 1   
    33    16    47 1   
    34    16    48 1   
    35    17    19 1   
    36    17    49 1   
    37    17    62 1   
    38    18    20 1   
    39    18    50 1   
    40    18    51 1   
    41    19    21 1   
    42    19    52 1   
    43    19    53 1   
    44    20    21 1   
    45    21    54 1   
    46    21    55 1   
    47    22    26 ar  
    48    22    27 ar  
    49    22    63 1   
    50    23    24 ar  
    51    23    25 ar  
    52    23    57 1   
    53    24    26 ar  
    54    24    28 1   
    55    25    27 ar  
    56    25    58 1   
    57    26    30 1   
    58    27    59 1   
    59    28    29 2   
    60    28    31 1   
    61    29    30 1   
    62    29    60 1   
    63    30    61 1   
    64    31    32 3   
    65    33    63 2   
    66    56    62 1   
    67    62    63 1   
@<TRIPOS>SUBSTRUCTURE
     1 CCX         1 TEMP              0 ****  ****    0 ROOT
