@<TRIPOS>MOLECULE
CCX
   63    67     1     0     0
SMALL
No Charge or Current Charge


@<TRIPOS>ATOM
      1 C1          -7.6940    -0.5830    -0.4250 ca         1 CCX      -0.110800
      2 C2          -8.8850    -1.1610    -0.0880 ca         1 CCX      -0.027200
      3 C3          -7.5580     0.8060    -0.5670 ca         1 CCX      -0.011000
      4 C4         -10.0330    -0.3920     0.1380 ca         1 CCX      -0.134000
      5 C5          -8.6980     1.6110    -0.3440 ca         1 CCX      -0.059000
      6 C6          -9.9330     1.0100     0.0090 ca         1 CCX      -0.056000
      7 C7          -6.7270    -1.6320    -0.5870 cc         1 CCX      -0.125400
      8 C8          -7.4080    -2.8200    -0.3350 cd         1 CCX      -0.158100
      9 N9          -8.7600    -2.5360    -0.0210 na         1 CCX      -0.218700
     10 C10         -5.2720    -1.4710    -0.9420 c3         1 CCX      -0.002200
     11 C11         -8.6030     3.0380    -0.4770 cg         1 CCX       0.331000
     12 N12         -8.5170     4.1970    -0.5880 n1         1 CCX      -0.467000
     13 C13         -4.4320    -0.9020     0.2220 c3         1 CCX      -0.076400
     14 C14         -2.9400    -0.7240    -0.1360 c3         1 CCX      -0.079400
     15 C15         -2.1070    -0.1560     1.0370 c3         1 CCX       0.168800
     16 C16          1.3700     1.4220     1.3970 c6         1 CCX      -0.092400
     17 C17          2.2550     0.2230     0.9900 c6         1 CCX       0.109700
     18 C18         -0.0460     0.9490     1.7980 c6         1 CCX       0.167800
     19 C19          1.5450    -0.5560    -0.1410 c6         1 CCX      -0.092400
     20 N20         -0.7040     0.1910     0.6980 n3         1 CCX      -0.718600
     21 C21          0.1220    -0.9830     0.2860 c6         1 CCX       0.167800
     22 C24          5.9850     0.6200     0.0300 ca         1 CCX      -0.157600
     23 C25          8.3720     1.8710    -0.9390 ca         1 CCX      -0.033000
     24 C26          8.3620     0.5460    -0.4870 ca         1 CCX      -0.078800
     25 C27          7.1580     2.5820    -0.9040 ca         1 CCX      -0.145000
     26 C28          7.2240    -0.0580    -0.0230 ca         1 CCX      -0.014200
     27 C29          5.9770     1.9680    -0.4260 ca         1 CCX      -0.064000
     28 C30          9.4310    -0.4090    -0.4070 cc         1 CCX      -0.072900
     29 C31          8.8790    -1.5730     0.1140 cd         1 CCX      -0.095100
     30 N32          7.4990    -1.3630     0.3570 na         1 CCX      -0.188700
     31 C33         10.7940    -0.2280    -0.7790 cg         1 CCX       0.325700
     32 N34         11.9170    -0.1050    -1.0770 n1         1 CCX      -0.475000
     33 O35          4.7270    -1.2250     0.9440 o          1 CCX      -0.648100
     34 H3          -6.6030     1.2480    -0.8410 ha         1 CCX       0.128000
     35 H4         -10.9780    -0.8600     0.4060 ha         1 CCX       0.120000
     36 H6         -10.8130     1.6280     0.1800 ha         1 CCX       0.123000
     37 H8          -7.0280    -3.8380    -0.3520 h4         1 CCX       0.215000
     38 HN9         -9.4890    -3.2050     0.2080 hn         1 CCX       0.354000
     39 H10         -4.8570    -2.4400    -1.2450 hc         1 CCX       0.046200
     40 H10A        -5.1810    -0.8090    -1.8120 hc         1 CCX       0.046200
     41 H13         -4.8460     0.0660     0.5290 hc         1 CCX       0.042700
     42 H13A        -4.5190    -1.5740     1.0850 hc         1 CCX       0.042700
     43 H14         -2.5350    -1.6960    -0.4420 hc         1 CCX       0.046200
     44 H14A        -2.8520    -0.0490    -0.9950 hc         1 CCX       0.046200
     45 H15         -2.6190     0.7480     1.3940 h1         1 CCX       0.030200
     46 H15A        -2.1240    -0.8790     1.8640 h1         1 CCX       0.030200
     47 H16          1.8290     1.9590     2.2380 hc         1 CCX       0.054200
     48 H16A         1.2940     2.1380     0.5670 hc         1 CCX       0.054200
     49 H17          2.3800    -0.4380     1.8610 h1         1 CCX       0.075700
     50 H18          0.0260     0.3240     2.7010 h1         1 CCX       0.035200
     51 H18A        -0.6470     1.8320     2.0630 h1         1 CCX       0.035200
     52 H19          1.4840     0.0650    -1.0460 hc         1 CCX       0.054200
     53 H19A         2.1290    -1.4460    -0.4090 hc         1 CCX       0.054200
     54 H21         -0.3390    -1.5080    -0.5620 h1         1 CCX       0.035200
     55 H21A         0.1950    -1.7050     1.1130 h1         1 CCX       0.035200
     56 HN22         3.6600     1.6350     0.2160 hn         1 CCX       0.316500
     57 H25          9.2840     2.3370    -1.3050 ha         1 CCX       0.128000
     58 H27          7.1290     3.6140    -1.2470 ha         1 CCX       0.119000
     59 H29          5.0650     2.5590    -0.4190 ha         1 CCX       0.105000
     60 H31          9.3610    -2.5240     0.3270 h4         1 CCX       0.228000
     61 HN32         6.8280    -2.0270     0.7360 hn         1 CCX       0.389000
     62 N22          3.5790     0.6870     0.5560 ns         1 CCX      -0.487900
     63 C23          4.7310    -0.0660     0.5480 c          1 CCX       0.627700
@<TRIPOS>BOND
     1     1     2 ar  
     2     1     3 ar  
     3     1     7 1   
     4     2     4 ar  
     5     2     9 1   
     6     3     5 ar  
     7     3    34 1   
     8     4     6 ar  
     9     4    35 1   
    10     5     6 ar  
    11     5    11 1   
    12     6    36 1   
    13     7     8 2   
    14     7    10 1   
    15     8     9 1   
    16     8    37 1   
    17     9    38 1   
    18    10    13 1   
    19    10    39 1   
    20    10    40 1   
    21    11    12 3   
    22    13    14 1   
    23    13    41 1   
    24    13    42 1   
    25    14    15 1   
    26    14    43 1   
    27    14    44 1   
    28    15    20 1   
    29    15    45 1   
    30    15    46 1   
    31    16    17 1   
    32    16    18 1   
    33    16    47 1   
    34    16    48 1   
    35    17    19 1   
    36    17    49 1   
    37    17    62 1   
    38    18    20 1   
    39    18    50 1   
    40    18    51 1   
    41    19    21 1   
    42    19    52 1   
    43    19    53 1   
    44    20    21 1   
    45    21    54 1   
    46    21    55 1   
    47    22    26 ar  
    48    22    27 ar  
    49    22    63 1   
    50    23    24 ar  
    51    23    25 ar  
    52    23    57 1   
    53    24    26 ar  
    54    24    28 1   
    55    25    27 ar  
    56    25    58 1   
    57    26    30 1   
    58    27    59 1   
    59    28    29 2   
    60    28    31 1   
    61    29    30 1   
    62    29    60 1   
    63    30    61 1   
    64    31    32 3   
    65    33    63 2   
    66    56    62 1   
    67    62    63 1   
@<TRIPOS>SUBSTRUCTURE
     1 CCX         1 TEMP              0 ****  ****    0 ROOT
