@<TRIPOS>MOLECULE
CCY
   40    41     1     0     0
SMALL
bcc


@<TRIPOS>ATOM
      1 C1           1.3810    -0.2520    -0.4380 c5         1 CCY       0.354900
      2 N2          -0.0580    -0.0740    -0.3380 n7         1 CCY      -0.862200
      3 CA2         -0.3530     1.2940     0.0380 c5         1 CCY       0.086500
      4 C2           0.9770     1.8120     0.5410 c          1 CCY       0.709500
      5 O2           1.1590     2.8930     1.0810 o          1 CCY      -0.648500
      6 N3           1.8970     0.8720     0.3050 n          1 CCY      -0.407800
      7 CA3          3.3050     1.0910     0.4790 c3         1 CCY      -0.052000
      8 C3           4.0050     1.6790    -0.7680 c          1 CCY       0.917600
      9 O3           3.2820     2.0420    -1.7110 o          1 CCY      -0.833800
     10 CA1          1.8010    -1.6040     0.1540 c3         1 CCY       0.165500
     11 N1           1.4720    -1.6460     1.5600 n8         1 CCY      -0.859800
     12 CB1          1.1600    -2.7110    -0.6910 c3         1 CCY      -0.000300
     13 SG           1.8470    -4.3290    -0.2010 sh         1 CCY      -0.427900
     14 CB2         -1.4490     1.3880     1.1010 c3         1 CCY      -0.013100
     15 CG          -2.7490     0.8170     0.6110 ca         1 CCY      -0.097300
     16 CD1         -3.0310    -0.5430     0.7350 ca         1 CCY      -0.086000
     17 CD2         -3.6920     1.6160    -0.0280 ca         1 CCY      -0.086000
     18 CE1         -4.2090    -1.0870     0.2500 ca         1 CCY      -0.199000
     19 CE2         -4.8770     1.0880    -0.5220 ca         1 CCY      -0.199000
     20 CZ          -5.1420    -0.2720    -0.3860 ca         1 CCY       0.121100
     21 OH          -6.2760    -0.8430    -0.8440 oh         1 CCY      -0.504100
     22 OXT          5.2460     1.7440    -0.6860 o          1 CCY      -0.833800
     23 H1           1.7420    -0.2050    -1.4750 h2         1 CCY       0.065700
     24 HN2         -0.5280    -0.3490    -1.1870 hn         1 CCY       0.364800
     25 HA2         -0.6470     1.9120    -0.8230 h1         1 CCY       0.057700
     26 HA31         3.4430     1.7790     1.3150 h1         1 CCY       0.049700
     27 HA32         3.7850     0.1560     0.7730 h1         1 CCY       0.049700
     28 HA1          2.8890    -1.6910     0.0450 h1         1 CCY       0.091700
     29 HN11         0.4810    -1.4550     1.6600 hn         1 CCY       0.339800
     30 HN12         1.6200    -2.5820     1.9180 hn         1 CCY       0.339800
     31 HB11         0.0820    -2.7270    -0.5300 h1         1 CCY       0.062700
     32 HB12         1.3490    -2.5490    -1.7530 h1         1 CCY       0.062700
     33 HSG          0.7940    -5.0860    -0.5230 hs         1 CCY       0.198800
     34 HB21        -1.1160     0.8530     1.9940 hc         1 CCY       0.062200
     35 HB22        -1.5790     2.4360     1.3790 hc         1 CCY       0.062200
     36 HD1         -2.3140    -1.1910     1.2240 ha         1 CCY       0.136000
     37 HD2         -3.5060     2.6780    -0.1420 ha         1 CCY       0.136000
     38 HE1         -4.4100    -2.1460     0.3640 ha         1 CCY       0.129500
     39 HE2         -5.5940     1.7380    -1.0120 ha         1 CCY       0.129500
     40 HO          -6.8400    -0.1800    -1.2570 ho         1 CCY       0.418000
@<TRIPOS>BOND
     1     1     2 1   
     2     1     6 1   
     3     1    10 1   
     4     1    23 1   
     5     2     3 1   
     6     2    24 1   
     7     3     4 1   
     8     3    14 1   
     9     3    25 1   
    10     4     5 2   
    11     4     6 1   
    12     6     7 1   
    13     7     8 1   
    14     7    26 1   
    15     7    27 1   
    16     8     9 1   
    17     8    22 1   
    18    10    11 1   
    19    10    12 1   
    20    10    28 1   
    21    11    29 1   
    22    11    30 1   
    23    12    13 1   
    24    12    31 1   
    25    12    32 1   
    26    13    33 1   
    27    14    15 1   
    28    14    34 1   
    29    14    35 1   
    30    15    16 ar  
    31    15    17 ar  
    32    16    18 ar  
    33    16    36 1   
    34    17    19 ar  
    35    17    37 1   
    36    18    20 ar  
    37    18    38 1   
    38    19    20 ar  
    39    19    39 1   
    40    20    21 1   
    41    21    40 1   
@<TRIPOS>SUBSTRUCTURE
     1 CCY         1 TEMP              0 ****  ****    0 ROOT
