@<TRIPOS>MOLECULE
CCY
   40    41     1     0     0
SMALL
No Charge or Current Charge


@<TRIPOS>ATOM
      1 C1           1.3110    -0.2930    -0.2950 c5         1 CCY       0.354900
      2 N2          -0.1110    -0.2640     0.1710 n7         1 CCY      -0.917400
      3 CA2         -0.4390     1.1920     0.1840 c5         1 CCY       0.086500
      4 C2           0.8680     1.9000     0.6060 c          1 CCY       0.567000
      5 O2           1.0520     3.0140     1.0870 o          1 CCY      -0.573000
      6 N3           1.8400     0.9240     0.3690 n          1 CCY      -0.340800
      7 CA3          3.2870     1.2120     0.5900 c3         1 CCY      -0.052000
      8 C3           4.0860     1.4900    -0.7040 c          1 CCY       0.707000
      9 O3           4.4920     2.6260    -0.9020 o          1 CCY      -0.728500
     10 CA1          2.0480    -1.6450     0.0380 c3         1 CCY       0.165500
     11 N1           1.8560    -2.0390     1.4660 n8         1 CCY      -0.970200
     12 CB1          1.5900    -2.7990    -0.8910 c3         1 CCY       0.047600
     13 SG           2.3800    -4.4460    -0.5330 sh         1 CCY      -0.475800
     14 CB2         -1.6390     1.5450     1.0960 c3         1 CCY      -0.013100
     15 CG          -2.9610     0.9510     0.6200 ca         1 CCY      -0.097300
     16 CD1         -3.4510    -0.2430     1.1830 ca         1 CCY      -0.068000
     17 CD2         -3.7020     1.5940    -0.3920 ca         1 CCY      -0.068000
     18 CE1         -4.6710    -0.7860     0.7410 ca         1 CCY      -0.181000
     19 CE2         -4.9220     1.0490    -0.8330 ca         1 CCY      -0.181000
     20 CZ          -5.4040    -0.1400    -0.2650 ca         1 CCY       0.121100
     21 OH          -6.5840    -0.6730    -0.6880 oh         1 CCY      -0.543100
     22 OXT          4.2480     0.5700    -1.4930 o          1 CCY      -0.728500
     23 H1           1.3850    -0.0870    -1.3730 h2         1 CCY       0.065700
     24 HN2         -0.7190    -0.7720    -0.4820 hn         1 CCY       0.420000
     25 HA2         -0.6590     1.5370    -0.8370 h1         1 CCY       0.057700
     26 HA31         3.3980     2.0750     1.2570 h1         1 CCY       0.049700
     27 HA32         3.7510     0.3560     1.0940 h1         1 CCY       0.049700
     28 HA1          3.1240    -1.5090    -0.1420 h1         1 CCY       0.091700
     29 HN11         0.9210    -1.6980     1.7250 hn         1 CCY       0.395000
     30 HN12         1.7680    -3.0600     1.4940 hn         1 CCY       0.395000
     31 HB11         0.5020    -2.9220    -0.8090 h1         1 CCY       0.062700
     32 HB12         1.8160    -2.5300    -1.9320 h1         1 CCY       0.062700
     33 HSG          1.7490    -5.1340    -1.5170 hs         1 CCY       0.198800
     34 HB21        -1.4250     1.2160     2.1210 hc         1 CCY       0.062200
     35 HB22        -1.7380     2.6360     1.1550 hc         1 CCY       0.062200
     36 HD1         -2.8850    -0.7530     1.9610 ha         1 CCY       0.118000
     37 HD2         -3.3330     2.5170    -0.8360 ha         1 CCY       0.118000
     38 HE1         -5.0440    -1.7080     1.1790 ha         1 CCY       0.111500
     39 HE2         -5.4830     1.5560    -1.6130 ha         1 CCY       0.111500
     40 HO          -6.9520    -0.0920    -1.3880 ho         1 CCY       0.457000
@<TRIPOS>BOND
     1     1     2 1   
     2     1     6 1   
     3     1    10 1   
     4     1    23 1   
     5     2     3 1   
     6     2    24 1   
     7     3     4 1   
     8     3    14 1   
     9     3    25 1   
    10     4     5 2   
    11     4     6 1   
    12     6     7 1   
    13     7     8 1   
    14     7    26 1   
    15     7    27 1   
    16     8     9 1   
    17     8    22 1   
    18    10    11 1   
    19    10    12 1   
    20    10    28 1   
    21    11    29 1   
    22    11    30 1   
    23    12    13 1   
    24    12    31 1   
    25    12    32 1   
    26    13    33 1   
    27    14    15 1   
    28    14    34 1   
    29    14    35 1   
    30    15    16 ar  
    31    15    17 ar  
    32    16    18 ar  
    33    16    36 1   
    34    17    19 ar  
    35    17    37 1   
    36    18    20 ar  
    37    18    38 1   
    38    19    20 ar  
    39    19    39 1   
    40    20    21 1   
    41    21    40 1   
@<TRIPOS>SUBSTRUCTURE
     1 CCY         1 TEMP              0 ****  ****    0 ROOT
