@<TRIPOS>MOLECULE
CCZ
   34    35     1     0     0
SMALL
bcc


@<TRIPOS>ATOM
      1 P           -0.9630    -0.3350    -0.0630 p5         1 CCZ       1.243600
      2 N1           6.0370    -1.0020    -1.2560 n2         1 CCZ      -0.836100
      3 C2           4.2120     0.0280    -0.1200 ca         1 CCZ      -0.183900
      4 N2           6.2980     1.1930    -0.4430 nv         1 CCZ      -0.966800
      5 C3           3.4950     1.2070     0.0700 ca         1 CCZ      -0.098500
      6 C4           2.1930     1.1750     0.5470 ca         1 CCZ      -0.134000
      7 C5           1.5750    -0.0300     0.8660 ca         1 CCZ      -0.001300
      8 C6           2.2910    -1.2100     0.6620 ca         1 CCZ      -0.134000
      9 C7           3.5870    -1.1820     0.1770 ca         1 CCZ      -0.098500
     10 C8           0.1610    -0.0600     1.3570 c3         1 CCZ      -0.232300
     11 C01         -3.5990    -0.0430     0.2370 ca         1 CCZ       0.243100
     12 C02         -4.4960     0.8000     0.8900 ca         1 CCZ      -0.193000
     13 C03         -5.7550     1.0300     0.3530 ca         1 CCZ      -0.108500
     14 C04         -6.1310     0.4340    -0.8440 ca         1 CCZ      -0.195000
     15 C05         -5.2330    -0.4020    -1.4950 ca         1 CCZ      -0.108500
     16 C06         -3.9740    -0.6460    -0.9640 ca         1 CCZ      -0.193000
     17 OP1         -0.9350     0.8400    -0.9940 o          1 CCZ      -0.800000
     18 OP2         -2.4000    -0.2640     0.8230 os         1 CCZ      -0.491500
     19 OP3         -0.7970    -1.7320    -0.5880 o          1 CCZ      -0.800000
     20 HN1          7.0070    -0.8840    -1.5360 hn         1 CCZ       0.350400
     21 HN2          7.2850     1.1800    -0.6460 hn         1 CCZ       0.395300
     22 HN2A         6.0610     1.7610     0.3530 hn         1 CCZ       0.395300
     23 H3           3.9360     2.1660    -0.1740 ha         1 CCZ       0.127500
     24 H4           1.6550     2.1050     0.6820 ha         1 CCZ       0.141000
     25 H6           1.8310    -2.1610     0.8960 ha         1 CCZ       0.141000
     26 H7           4.1280    -2.1080     0.0310 ha         1 CCZ       0.127500
     27 H8          -0.0950     0.8850     1.8400 hc         1 CCZ       0.064700
     28 H8A          0.0200    -0.8580     2.0890 hc         1 CCZ       0.064700
     29 H02         -4.2040     1.2680     1.8210 ha         1 CCZ       0.143500
     30 H03         -6.4410     1.6860     0.8720 ha         1 CCZ       0.108500
     31 H04         -7.1120     0.6170    -1.2620 ha         1 CCZ       0.107000
     32 H05         -5.5130    -0.8750    -2.4270 ha         1 CCZ       0.108500
     33 H06         -3.2950    -1.3180    -1.4720 ha         1 CCZ       0.143500
     34 C1           5.6060     0.0310    -0.6380 ce         1 CCZ       0.670800
@<TRIPOS>BOND
     1     1    10 1   
     2     1    17 1   
     3     1    18 1   
     4     1    19 1   
     5     2    20 1   
     6     2    34 2   
     7     3     5 ar  
     8     3     9 ar  
     9     3    34 1   
    10     4    21 1   
    11     4    22 1   
    12     4    34 1   
    13     5     6 ar  
    14     5    23 1   
    15     6     7 ar  
    16     6    24 1   
    17     7     8 ar  
    18     7    10 1   
    19     8     9 ar  
    20     8    25 1   
    21     9    26 1   
    22    10    27 1   
    23    10    28 1   
    24    11    12 ar  
    25    11    16 ar  
    26    11    18 1   
    27    12    13 ar  
    28    12    29 1   
    29    13    14 ar  
    30    13    30 1   
    31    14    15 ar  
    32    14    31 1   
    33    15    16 ar  
    34    15    32 1   
    35    16    33 1   
@<TRIPOS>SUBSTRUCTURE
     1 CCZ         1 TEMP              0 ****  ****    0 ROOT
