@<TRIPOS>MOLECULE
CCZ
   34    35     1     0     0
SMALL
No Charge or Current Charge


@<TRIPOS>ATOM
      1 P           -1.0510     0.0110    -0.2540 p5         1 CCZ       1.401400
      2 N1           6.3590    -1.3160    -0.7140 n2         1 CCZ      -0.836100
      3 C2           4.3730    -0.0610    -0.0480 ca         1 CCZ      -0.183900
      4 N2           6.5770     0.9080    -0.4730 nv         1 CCZ      -1.077200
      5 C3           3.6930     1.1780    -0.1400 ca         1 CCZ      -0.080500
      6 C4           2.3410     1.2860     0.2290 ca         1 CCZ      -0.116000
      7 C5           1.6330     0.1610     0.6830 ca         1 CCZ      -0.001300
      8 C6           2.2910    -1.0780     0.7600 ca         1 CCZ      -0.116000
      9 C7           3.6430    -1.1910     0.3920 ca         1 CCZ      -0.080500
     10 C8           0.1720     0.2820     1.0860 c3         1 CCZ      -0.390100
     11 C01         -3.6950     0.1630     0.1740 ca         1 CCZ       0.243100
     12 C02         -4.7100     0.3940     1.1170 ca         1 CCZ      -0.175000
     13 C03         -6.0630     0.3380     0.7380 ca         1 CCZ      -0.090500
     14 C04         -6.4030     0.0500    -0.5930 ca         1 CCZ      -0.177000
     15 C05         -5.3960    -0.1830    -1.5440 ca         1 CCZ      -0.090500
     16 C06         -4.0430    -0.1270    -1.1640 ca         1 CCZ      -0.175000
     17 OP1         -0.8900     1.0490    -1.3180 o          1 CCZ      -0.800000
     18 OP2         -2.3970     0.2330     0.6110 os         1 CCZ      -0.491500
     19 OP3         -0.9430    -1.3860    -0.7770 o          1 CCZ      -0.800000
     20 HN1          7.2720    -1.1290    -1.1410 hn         1 CCZ       0.350400
     21 HN2          7.5670     0.7550    -0.3260 hn         1 CCZ       0.450500
     22 HN2A         6.1840     1.7060     0.0110 hn         1 CCZ       0.450500
     23 H3           4.2020     2.0660    -0.5070 ha         1 CCZ       0.109500
     24 H4           1.8400     2.2480     0.1530 ha         1 CCZ       0.123000
     25 H6           1.7540    -1.9590     1.1030 ha         1 CCZ       0.123000
     26 H7           4.1250    -2.1640     0.4590 ha         1 CCZ       0.109500
     27 H8          -0.0420     1.2770     1.4880 hc         1 CCZ       0.064700
     28 H8A         -0.0790    -0.4400     1.8690 hc         1 CCZ       0.064700
     29 H02         -4.4450     0.6170     2.1470 ha         1 CCZ       0.125500
     30 H03         -6.8430     0.5180     1.4740 ha         1 CCZ       0.090500
     31 H04         -7.4490     0.0060    -0.8890 ha         1 CCZ       0.089000
     32 H05         -5.6620    -0.4060    -2.5750 ha         1 CCZ       0.090500
     33 H06         -3.2840    -0.3110    -1.9180 ha         1 CCZ       0.125500
     34 C1           5.8070    -0.2010    -0.4660 ce         1 CCZ       0.670800
@<TRIPOS>BOND
     1     1    10 1   
     2     1    17 1   
     3     1    18 1   
     4     1    19 1   
     5     2    20 1   
     6     2    34 2   
     7     3     5 ar  
     8     3     9 ar  
     9     3    34 1   
    10     4    21 1   
    11     4    22 1   
    12     4    34 1   
    13     5     6 ar  
    14     5    23 1   
    15     6     7 ar  
    16     6    24 1   
    17     7     8 ar  
    18     7    10 1   
    19     8     9 ar  
    20     8    25 1   
    21     9    26 1   
    22    10    27 1   
    23    10    28 1   
    24    11    12 ar  
    25    11    16 ar  
    26    11    18 1   
    27    12    13 ar  
    28    12    29 1   
    29    13    14 ar  
    30    13    30 1   
    31    14    15 ar  
    32    14    31 1   
    33    15    16 ar  
    34    15    32 1   
    35    16    33 1   
@<TRIPOS>SUBSTRUCTURE
     1 CCZ         1 TEMP              0 ****  ****    0 ROOT
