@<TRIPOS>MOLECULE
CD0
   55    56     1     0     0
SMALL
No Charge or Current Charge


@<TRIPOS>ATOM
      1 C11        146.9120   107.6950   126.8640 ca         1 CD0       0.181100
      2 C12        147.4940   107.6270   129.2190 ca         1 CD0       0.181100
      3 C21        144.2330   104.2720   129.2260 c3         1 CD0      -0.076400
      4 C22        142.7380   103.8910   129.1610 c3         1 CD0      -0.077400
      5 C03        148.7400   110.3730   127.0180 c6         1 CD0      -0.021500
      6 C04        147.6280   109.9200   128.0270 c6         1 CD0      -0.007400
      7 C05        149.0090   111.8990   127.1510 c6         1 CD0      -0.070400
      8 C06        147.7080   112.7170   126.9430 c6         1 CD0      -0.073400
      9 C07        146.3280   110.7590   127.8320 c6         1 CD0      -0.067400
     10 C08        147.3420   108.3860   128.0270 ca         1 CD0      -0.191300
     11 C09        146.5800   112.2920   127.9250 c6         1 CD0      -0.058700
     12 C10        150.0260   109.5390   127.1370 c2         1 CD0      -0.104400
     13 C13        146.8470   112.7710   129.3820 c3         1 CD0      -0.086100
     14 C14        150.8230   109.6710   128.4270 c3         1 CD0      -0.055900
     15 C15        146.8320   105.5790   128.0710 ca         1 CD0       0.001700
     16 C16        146.6660   106.3170   126.8910 ca         1 CD0      -0.215500
     17 C17        147.2450   106.2460   129.2330 ca         1 CD0      -0.215500
     18 C18        146.5520   104.0810   128.0900 c3         1 CD0      -0.032100
     19 C19        150.4170   108.7270   126.1410 c2         1 CD0      -0.323000
     20 C20        145.0450   103.7430   128.0220 c3         1 CD0      -0.071400
     21 C23        141.9270   104.4210   130.3590 c3         1 CD0      -0.089100
     22 O01        146.7100   108.3420   125.6850 oh         1 CD0      -0.542600
     23 O02        147.8730   108.2130   130.3920 oh         1 CD0      -0.542600
     24 H1         144.6650   103.8770   130.1540 hc         1 CD0       0.036200
     25 H2         144.3190   105.3650   129.2720 hc         1 CD0       0.036200
     26 H3         142.3020   104.2840   128.2340 hc         1 CD0       0.037700
     27 H4         142.6420   102.7990   129.1210 hc         1 CD0       0.037700
     28 H5         148.3580   110.2370   126.0000 hc         1 CD0       0.033700
     29 H6         148.0080   110.1970   129.0160 hc         1 CD0       0.077700
     30 H7         149.7570   112.2080   126.4090 hc         1 CD0       0.044700
     31 H8         149.4360   112.1340   128.1350 hc         1 CD0       0.044700
     32 H9         147.3590   112.5850   125.9100 hc         1 CD0       0.038700
     33 H10        147.9210   113.7900   127.0550 hc         1 CD0       0.038700
     34 H11        145.5830   110.4620   128.5820 hc         1 CD0       0.040700
     35 H12        145.8720   110.5400   126.8580 hc         1 CD0       0.040700
     36 H13        145.6560   112.8040   127.6180 hc         1 CD0       0.043700
     37 H14        146.0180   112.4930   130.0450 hc         1 CD0       0.033367
     38 H15        147.7640   112.3450   129.8040 hc         1 CD0       0.033367
     39 H16        146.9440   113.8630   129.4230 hc         1 CD0       0.033367
     40 H17        151.6880   108.9970   128.4340 hc         1 CD0       0.041367
     41 H18        151.2110   110.6870   128.5600 hc         1 CD0       0.041367
     42 H19        150.2180   109.4240   129.3050 hc         1 CD0       0.041367
     43 H20        146.3380   105.8160   125.9840 ha         1 CD0       0.121500
     44 H21        147.3640   105.6820   130.1550 ha         1 CD0       0.121500
     45 H22        147.0560   103.6050   127.2390 hc         1 CD0       0.050200
     46 H23        146.9810   103.6200   128.9880 hc         1 CD0       0.050200
     47 H24        151.3250   108.1280   126.2140 ha         1 CD0       0.162500
     48 H25        149.8450   108.6260   125.2190 ha         1 CD0       0.162500
     49 H26        144.6250   104.1490   127.0930 hc         1 CD0       0.042700
     50 H27        144.9330   102.6530   127.9670 hc         1 CD0       0.042700
     51 H28        140.8750   104.1270   130.2690 hc         1 CD0       0.031367
     52 H29        142.3170   104.0170   131.3010 hc         1 CD0       0.031367
     53 H30        141.9750   105.5160   130.4060 hc         1 CD0       0.031367
     54 H31        146.9480   109.2780   125.8300 ho         1 CD0       0.468000
     55 H32        147.9080   107.5200   131.0830 ho         1 CD0       0.468000
@<TRIPOS>BOND
     1     1    10 ar  
     2     1    16 ar  
     3     1    22 1   
     4     2    10 ar  
     5     2    17 ar  
     6     2    23 1   
     7     3     4 1   
     8     3    20 1   
     9     3    24 1   
    10     3    25 1   
    11     4    21 1   
    12     4    26 1   
    13     4    27 1   
    14     5     6 1   
    15     5     7 1   
    16     5    12 1   
    17     5    28 1   
    18     6     9 1   
    19     6    10 1   
    20     6    29 1   
    21     7     8 1   
    22     7    30 1   
    23     7    31 1   
    24     8    11 1   
    25     8    32 1   
    26     8    33 1   
    27     9    11 1   
    28     9    34 1   
    29     9    35 1   
    30    11    13 1   
    31    11    36 1   
    32    12    14 1   
    33    12    19 2   
    34    13    37 1   
    35    13    38 1   
    36    13    39 1   
    37    14    40 1   
    38    14    41 1   
    39    14    42 1   
    40    15    16 ar  
    41    15    17 ar  
    42    15    18 1   
    43    16    43 1   
    44    17    44 1   
    45    18    20 1   
    46    18    45 1   
    47    18    46 1   
    48    19    47 1   
    49    19    48 1   
    50    20    49 1   
    51    20    50 1   
    52    21    51 1   
    53    21    52 1   
    54    21    53 1   
    55    22    54 1   
    56    23    55 1   
@<TRIPOS>SUBSTRUCTURE
     1 CD0         1 TEMP              0 ****  ****    0 ROOT
