@<TRIPOS>MOLECULE
CD0
   55    56     1     0     0
SMALL
bcc


@<TRIPOS>ATOM
      1 C11        147.0880   107.9700   126.3560 ca         1 CD0       0.181100
      2 C12        146.5670   108.0550   128.6720 ca         1 CD0       0.181100
      3 C21        144.4150   103.8190   129.4880 c3         1 CD0      -0.076400
      4 C22        143.0860   103.4350   130.1270 c3         1 CD0      -0.077400
      5 C03        149.0610   110.3730   127.2140 c6         1 CD0      -0.021500
      6 C04        147.6010   110.1270   127.6650 c6         1 CD0      -0.007400
      7 C05        149.4500   111.8060   127.5960 c6         1 CD0      -0.070400
      8 C06        148.5230   112.8180   126.9290 c6         1 CD0      -0.073400
      9 C07        146.6630   111.1330   126.9810 c6         1 CD0      -0.067400
     10 C08        147.1020   108.7020   127.5470 ca         1 CD0      -0.191300
     11 C09        147.0490   112.5870   127.2710 c6         1 CD0      -0.058700
     12 C10        150.0210   109.3420   127.7490 c2         1 CD0      -0.104400
     13 C13        146.7140   112.9990   128.7030 c3         1 CD0      -0.086100
     14 C14        150.1670   109.2270   129.2380 c3         1 CD0      -0.055900
     15 C15        146.0820   106.0450   127.4270 ca         1 CD0       0.001700
     16 C16        146.5880   106.6700   126.2960 ca         1 CD0      -0.233500
     17 C17        146.0770   106.7550   128.6220 ca         1 CD0      -0.233500
     18 C18        145.5740   104.6290   127.3240 c3         1 CD0      -0.032100
     19 C19        150.7200   108.5670   126.9210 c2         1 CD0      -0.223000
     20 C20        144.2590   104.3200   128.0550 c3         1 CD0      -0.071400
     21 C23        143.2440   102.9450   131.5600 c3         1 CD0      -0.089100
     22 O01        147.5380   108.4620   125.1790 oh         1 CD0      -0.503600
     23 O02        146.5380   108.7460   129.8340 oh         1 CD0      -0.503600
     24 H1         145.0820   102.9490   129.4920 hc         1 CD0       0.036200
     25 H2         144.9050   104.5700   130.1140 hc         1 CD0       0.036200
     26 H3         142.4120   104.2960   130.1050 hc         1 CD0       0.037700
     27 H4         142.6070   102.6590   129.5210 hc         1 CD0       0.037700
     28 H5         149.1360   110.3410   126.1180 hc         1 CD0       0.033700
     29 H6         147.5860   110.3650   128.7300 hc         1 CD0       0.077700
     30 H7         150.4830   111.9950   127.2950 hc         1 CD0       0.044700
     31 H8         149.4160   111.9230   128.6840 hc         1 CD0       0.044700
     32 H9         148.6520   112.7470   125.8430 hc         1 CD0       0.038700
     33 H10        148.8170   113.8340   127.2070 hc         1 CD0       0.038700
     34 H11        145.6360   110.9490   127.3070 hc         1 CD0       0.040700
     35 H12        146.6670   110.9810   125.8960 hc         1 CD0       0.040700
     36 H13        146.4500   113.2200   126.6090 hc         1 CD0       0.043700
     37 H14        145.6550   112.8460   128.9140 hc         1 CD0       0.033367
     38 H15        147.2780   112.4390   129.4500 hc         1 CD0       0.033367
     39 H16        146.9330   114.0560   128.8610 hc         1 CD0       0.033367
     40 H17        150.9030   108.4690   129.5040 hc         1 CD0       0.041367
     41 H18        150.4840   110.1710   129.6850 hc         1 CD0       0.041367
     42 H19        149.2230   108.9570   129.7140 hc         1 CD0       0.041367
     43 H20        146.5920   106.1520   125.3440 ha         1 CD0       0.139500
     44 H21        145.6900   106.3080   129.5290 ha         1 CD0       0.139500
     45 H22        145.4520   104.3990   126.2640 hc         1 CD0       0.050200
     46 H23        146.3510   103.9450   127.6820 hc         1 CD0       0.050200
     47 H24        151.4190   107.8270   127.2910 ha         1 CD0       0.112500
     48 H25        150.6160   108.6410   125.8450 ha         1 CD0       0.112500
     49 H26        143.6100   105.2020   128.0360 hc         1 CD0       0.042700
     50 H27        143.7290   103.5490   127.4880 hc         1 CD0       0.042700
     51 H28        142.2860   102.6660   132.0000 hc         1 CD0       0.031367
     52 H29        143.8970   102.0710   131.6090 hc         1 CD0       0.031367
     53 H30        143.6840   103.7190   132.1930 hc         1 CD0       0.031367
     54 H31        147.9100   109.3410   125.2830 ho         1 CD0       0.429000
     55 H32        146.1920   108.1880   130.5390 ho         1 CD0       0.429000
@<TRIPOS>BOND
     1     1    10 ar  
     2     1    16 ar  
     3     1    22 1   
     4     2    10 ar  
     5     2    17 ar  
     6     2    23 1   
     7     3     4 1   
     8     3    20 1   
     9     3    24 1   
    10     3    25 1   
    11     4    21 1   
    12     4    26 1   
    13     4    27 1   
    14     5     6 1   
    15     5     7 1   
    16     5    12 1   
    17     5    28 1   
    18     6     9 1   
    19     6    10 1   
    20     6    29 1   
    21     7     8 1   
    22     7    30 1   
    23     7    31 1   
    24     8    11 1   
    25     8    32 1   
    26     8    33 1   
    27     9    11 1   
    28     9    34 1   
    29     9    35 1   
    30    11    13 1   
    31    11    36 1   
    32    12    14 1   
    33    12    19 2   
    34    13    37 1   
    35    13    38 1   
    36    13    39 1   
    37    14    40 1   
    38    14    41 1   
    39    14    42 1   
    40    15    16 ar  
    41    15    17 ar  
    42    15    18 1   
    43    16    43 1   
    44    17    44 1   
    45    18    20 1   
    46    18    45 1   
    47    18    46 1   
    48    19    47 1   
    49    19    48 1   
    50    20    49 1   
    51    20    50 1   
    52    21    51 1   
    53    21    52 1   
    54    21    53 1   
    55    22    54 1   
    56    23    55 1   
@<TRIPOS>SUBSTRUCTURE
     1 CD0         1 TEMP              0 ****  ****    0 ROOT
