@<TRIPOS>MOLECULE
CD2
   43    46     1     0     0
SMALL
No Charge or Current Charge


@<TRIPOS>ATOM
      1 C1           5.9300    18.8910    52.6580 ca         1 CD2      -0.110000
      2 C2           5.0440    18.1470    51.8620 ca         1 CD2      -0.120000
      3 C3           5.1470    18.1990    50.4630 ca         1 CD2      -0.085000
      4 C4           6.9170    19.6880    52.0520 ca         1 CD2      -0.085000
      5 C5           7.0370    19.7540    50.6500 ca         1 CD2       0.265000
      6 C6           6.1380    18.9970    49.8580 ca         1 CD2      -0.084000
      7 C7           6.2420    19.0500    48.4570 ca         1 CD2      -0.058000
      8 C8           7.2440    19.8570    47.8610 cp         1 CD2      -0.171500
      9 C9           8.0870    20.5800    48.7420 ca         1 CD2       0.384900
     10 N10          7.9930    20.5310    50.0930 nb         1 CD2      -0.678000
     11 C11          7.4130    19.9610    46.3760 cp         1 CD2       0.375500
     12 N12          8.0520    21.0600    45.9180 nb         1 CD2      -0.693000
     13 C13          8.2260    21.2090    44.5870 ca         1 CD2       0.325900
     14 C14          7.7810    20.2670    43.6480 ca         1 CD2      -0.155000
     15 C15          7.1210    19.1020    44.0890 ca         1 CD2      -0.027500
     16 C16          6.9450    18.9640    45.4840 ca         1 CD2      -0.139000
     17 C17          6.6370    18.0700    43.1510 cc         1 CD2       0.243500
     18 C18          6.7690    18.1190    41.7540 cc         1 CD2      -0.218000
     19 N19          6.0210    16.9750    43.5520 nd         1 CD2      -0.580800
     20 N20          5.7370    16.2960    42.3680 na         1 CD2       0.148800
     21 C21          6.2060    16.9860    41.2350 cd         1 CD2      -0.157600
     22 C22          6.1570    16.6400    39.7800 c          1 CD2       0.733600
     23 C23          3.5530    15.0980    42.8850 c3         1 CD2       0.136800
     24 C24          5.0320    14.9960    42.4330 c3         1 CD2       0.080600
     25 O25          5.6570    15.5840    39.4270 o          1 CD2      -0.701500
     26 N26          2.6770    15.8140    41.9270 n8         1 CD2      -0.984200
     27 O27          6.6410    17.4320    38.9830 o          1 CD2      -0.701500
     28 H1           5.8520    18.8520    53.7420 ha         1 CD2       0.108000
     29 H2           4.2790    17.5300    52.3290 ha         1 CD2       0.109000
     30 H3           4.4580    17.6200    49.8520 ha         1 CD2       0.115000
     31 H4           7.5990    20.2620    52.6740 ha         1 CD2       0.125000
     32 H7           5.5430    18.4830    47.8470 ha         1 CD2       0.127000
     33 H9           8.8830    21.2170    48.3570 h4         1 CD2       0.037100
     34 H13          8.7420    22.1120    44.2650 h4         1 CD2       0.009100
     35 H14          7.9600    20.4580    42.5960 ha         1 CD2       0.133000
     36 H16          6.4590    18.0790    45.8780 ha         1 CD2       0.138000
     37 H18          7.2430    18.9130    41.1890 ha         1 CD2       0.145000
     38 H23          3.1530    14.0840    43.0170 h1         1 CD2       0.023700
     39 H23A         3.5000    15.6100    43.8560 h1         1 CD2       0.023700
     40 H24          5.0820    14.4830    41.4700 h1         1 CD2       0.088200
     41 H24A         5.5680    14.3680    43.1540 h1         1 CD2       0.088200
     42 HN26         1.7340    15.8900    42.3260 hn         1 CD2       0.391500
     43 HN2A         2.9890    16.7900    41.8580 hn         1 CD2       0.391500
@<TRIPOS>BOND
     1     1     2 ar  
     2     1     4 ar  
     3     1    28 1   
     4     2     3 ar  
     5     2    29 1   
     6     3     6 ar  
     7     3    30 1   
     8     4     5 ar  
     9     4    31 1   
    10     5     6 ar  
    11     5    10 ar  
    12     6     7 ar  
    13     7     8 ar  
    14     7    32 1   
    15     8     9 ar  
    16     8    11 1   
    17     9    10 ar  
    18     9    33 1   
    19    11    12 ar  
    20    11    16 ar  
    21    12    13 ar  
    22    13    14 ar  
    23    13    34 1   
    24    14    15 ar  
    25    14    35 1   
    26    15    16 ar  
    27    15    17 1   
    28    16    36 1   
    29    17    18 1   
    30    17    19 2   
    31    18    21 2   
    32    18    37 1   
    33    19    20 1   
    34    20    21 1   
    35    20    24 1   
    36    21    22 1   
    37    22    25 1   
    38    22    27 1   
    39    23    24 1   
    40    23    26 1   
    41    23    38 1   
    42    23    39 1   
    43    24    40 1   
    44    24    41 1   
    45    26    42 1   
    46    26    43 1   
@<TRIPOS>SUBSTRUCTURE
     1 CD2         1 TEMP              0 ****  ****    0 ROOT
