@<TRIPOS>MOLECULE
CD2
   43    46     1     0     0
SMALL
abcg2


@<TRIPOS>ATOM
      1 C1           5.9710    18.8270    52.5770 ca         1 CD2      -0.110000
      2 C2           4.9940    18.1730    51.7930 ca         1 CD2      -0.120000
      3 C3           5.0450    18.2420    50.4240 ca         1 CD2      -0.085000
      4 C4           6.9830    19.5390    51.9830 ca         1 CD2      -0.085000
      5 C5           7.0600    19.6300    50.5750 ca         1 CD2       0.265000
      6 C6           6.0780    18.9690    49.7830 ca         1 CD2      -0.084000
      7 C7           6.1780    19.0770    48.3800 ca         1 CD2      -0.058000
      8 C8           7.1980    19.8080    47.8180 cp         1 CD2      -0.171500
      9 C9           8.1230    20.4300    48.7010 ca         1 CD2       0.384900
     10 N10          8.0720    20.3490    50.0080 nb         1 CD2      -0.678000
     11 C11          7.3590    19.9640    46.3550 cp         1 CD2       0.375500
     12 N12          7.9420    21.0980    45.9310 nb         1 CD2      -0.693000
     13 C13          8.0920    21.2630    44.6160 ca         1 CD2       0.325900
     14 C14          7.6840    20.3370    43.6690 ca         1 CD2      -0.155000
     15 C15          7.0870    19.1480    44.0980 ca         1 CD2      -0.027500
     16 C16          6.9310    18.9730    45.4740 ca         1 CD2      -0.139000
     17 C17          6.6490    18.1300    43.1440 cc         1 CD2       0.243500
     18 C18          6.7290    18.1470    41.7390 cc         1 CD2      -0.218000
     19 N19          6.0850    16.9880    43.5610 nd         1 CD2      -0.580800
     20 N20          5.8250    16.2790    42.4540 na         1 CD2       0.148800
     21 C21          6.1930    16.9430    41.3160 cd         1 CD2      -0.157600
     22 C22          6.0820    16.4350    39.8910 c          1 CD2       0.733600
     23 C23          3.6340    15.2550    42.9590 c3         1 CD2       0.136800
     24 C24          5.0950    15.0230    42.5930 c3         1 CD2       0.080600
     25 O25          5.9490    15.2010    39.7120 o          1 CD2      -0.701500
     26 N26          2.9340    15.9940    41.9020 n8         1 CD2      -0.984200
     27 O27          6.1630    17.3220    39.0090 o          1 CD2      -0.701500
     28 H1           5.9160    18.7630    53.6570 ha         1 CD2       0.108000
     29 H2           4.2040    17.6160    52.2800 ha         1 CD2       0.109000
     30 H3           4.3010    17.7440    49.8140 ha         1 CD2       0.115000
     31 H4           7.7360    20.0450    52.5720 ha         1 CD2       0.125000
     32 H7           5.4300    18.5940    47.7640 ha         1 CD2       0.127000
     33 H9           8.9350    21.0070    48.2740 h4         1 CD2       0.037100
     34 H13          8.5620    22.1880    44.2990 h4         1 CD2       0.009100
     35 H14          7.8390    20.5400    42.6180 ha         1 CD2       0.133000
     36 H16          6.4930    18.0600    45.8490 ha         1 CD2       0.138000
     37 H18          7.1310    18.9150    41.1020 ha         1 CD2       0.145000
     38 H23          3.1640    14.2750    43.0660 h1         1 CD2       0.023700
     39 H23A         3.5860    15.7510    43.9360 h1         1 CD2       0.023700
     40 H24          5.1820    14.5090    41.6410 h1         1 CD2       0.088200
     41 H24A         5.5850    14.4410    43.3730 h1         1 CD2       0.088200
     42 HN26         1.9530    16.0860    42.1450 hn         1 CD2       0.391500
     43 HN2A         3.2960    16.9420    41.8500 hn         1 CD2       0.391500
@<TRIPOS>BOND
     1     1     2 ar  
     2     1     4 ar  
     3     1    28 1   
     4     2     3 ar  
     5     2    29 1   
     6     3     6 ar  
     7     3    30 1   
     8     4     5 ar  
     9     4    31 1   
    10     5     6 ar  
    11     5    10 ar  
    12     6     7 ar  
    13     7     8 ar  
    14     7    32 1   
    15     8     9 ar  
    16     8    11 1   
    17     9    10 ar  
    18     9    33 1   
    19    11    12 ar  
    20    11    16 ar  
    21    12    13 ar  
    22    13    14 ar  
    23    13    34 1   
    24    14    15 ar  
    25    14    35 1   
    26    15    16 ar  
    27    15    17 1   
    28    16    36 1   
    29    17    18 1   
    30    17    19 2   
    31    18    21 2   
    32    18    37 1   
    33    19    20 1   
    34    20    21 1   
    35    20    24 1   
    36    21    22 1   
    37    22    25 1   
    38    22    27 1   
    39    23    24 1   
    40    23    26 1   
    41    23    38 1   
    42    23    39 1   
    43    24    40 1   
    44    24    41 1   
    45    26    42 1   
    46    26    43 1   
@<TRIPOS>SUBSTRUCTURE
     1 CD2         1 TEMP              0 ****  ****    0 ROOT
