@<TRIPOS>MOLECULE
CD6
   38    39     1     0     0
SMALL
No Charge or Current Charge


@<TRIPOS>ATOM
      1 CAA         -5.5860     0.4970    -0.5840 c2         1 CD6      -0.255000
      2 OAE         -3.8580     2.7150     0.5290 o          1 CD6      -0.693000
      3 OAF          1.7030     0.6720     2.0410 o          1 CD6      -0.624100
      4 OAH         -1.8000     2.6710    -0.0360 o          1 CD6      -0.693000
      5 CAI          6.3800    -0.2650    -0.5920 ca         1 CD6      -0.117000
      6 CAJ          5.3240    -0.5620    -1.4700 ca         1 CD6      -0.116000
      7 CAK          6.1800     0.6400     0.4630 ca         1 CD6      -0.116000
      8 CAL          4.0690     0.0470    -1.2940 ca         1 CD6      -0.092000
      9 CAM          4.9250     1.2490     0.6400 ca         1 CD6      -0.092000
     10 CAN         -4.2810    -1.6100    -0.3350 c6         1 CD6       0.123800
     11 CAP          2.5000     1.6140    -0.0440 c3         1 CD6      -0.117100
     12 NAQ         -2.0080    -0.0130    -0.8730 n2         1 CD6      -0.646900
     13 NAS          0.6550    -0.0000     0.1390 ns         1 CD6      -0.472900
     14 SAU         -2.8930    -2.0490     0.7910 ss         1 CD6      -0.546000
     15 CAW         -4.3670    -0.0870    -0.4660 ce         1 CD6      -0.220800
     16 CAX         -2.8980     2.1190     0.0470 c          1 CD6       0.641700
     17 CAY          1.5950     0.7350     0.8240 c          1 CD6       0.596100
     18 CAZ          0.2510    -2.1330     1.3880 c          1 CD6       0.595900
     19 CBA         -3.0560     0.6430    -0.4330 ce         1 CD6       0.457600
     20 CBB          3.8630     0.9570    -0.2380 ca         1 CD6      -0.054300
     21 CBD         -1.5590    -1.2170    -0.1630 c6         1 CD6       0.293500
     22 CBE         -0.3760    -0.8580     0.7830 c3         1 CD6       0.001700
     23 HAA         -6.5050    -0.0920    -0.5940 ha         1 CD6       0.169000
     24 HAAA        -5.7170     1.5740    -0.6920 ha         1 CD6       0.169000
     25 HAK          6.9960     0.8700     1.1450 ha         1 CD6       0.104000
     26 HAL          3.2580    -0.1910    -1.9780 ha         1 CD6       0.114000
     27 HAM          4.7780     1.9470     1.4620 ha         1 CD6       0.114000
     28 HAN         -4.1030    -2.0710    -1.3170 h1         1 CD6       0.064700
     29 HANA        -5.2110    -2.0240     0.0820 h1         1 CD6       0.064700
     30 HAP          2.0360     1.7700    -1.0250 hc         1 CD6       0.071200
     31 HAPA         2.6250     2.5830     0.4530 hc         1 CD6       0.071200
     32 HNAS         0.5980     0.1470    -0.8630 hn         1 CD6       0.357500
     33 HAZ         -0.2900    -2.5560     2.2630 h4         1 CD6      -0.003800
     34 HBD         -1.2060    -1.9440    -0.9120 h2         1 CD6       0.086700
     35 HBE         -0.7970    -0.2920     1.6240 h1         1 CD6       0.072700
     36 HAI          7.3500    -0.7360    -0.7290 ha         1 CD6       0.101000
     37 OAG          1.2790    -2.6640     0.9700 o          1 CD6      -0.519100
     38 HAJ          5.4770    -1.2630    -2.2870 ha         1 CD6       0.104000
@<TRIPOS>BOND
     1     1    15 2   
     2     1    23 1   
     3     1    24 1   
     4     2    16 1   
     5     3    17 2   
     6     4    16 1   
     7     5     6 ar  
     8     5     7 ar  
     9     5    36 1   
    10     6     8 ar  
    11     6    38 1   
    12     7     9 ar  
    13     7    25 1   
    14     8    20 ar  
    15     8    26 1   
    16     9    20 ar  
    17     9    27 1   
    18    10    14 1   
    19    10    15 1   
    20    10    28 1   
    21    10    29 1   
    22    11    17 1   
    23    11    20 1   
    24    11    30 1   
    25    11    31 1   
    26    12    19 2   
    27    12    21 1   
    28    13    17 1   
    29    13    22 1   
    30    13    32 1   
    31    14    21 1   
    32    15    19 1   
    33    16    19 1   
    34    18    22 1   
    35    18    33 1   
    36    18    37 2   
    37    21    22 1   
    38    21    34 1   
    39    22    35 1   
@<TRIPOS>SUBSTRUCTURE
     1 CD6         1 TEMP              0 ****  ****    0 ROOT
