@<TRIPOS>MOLECULE
CD6
   38    39     1     0     0
SMALL
bcc


@<TRIPOS>ATOM
      1 CAA         -5.6180     0.7480     0.1750 c2         1 CD6      -0.155000
      2 OAE         -3.3780     3.1080    -0.1270 o          1 CD6      -0.798300
      3 OAF          2.1700    -0.7760     1.2580 o          1 CD6      -0.624100
      4 OAH         -3.5020     2.3940    -2.2490 o          1 CD6      -0.798300
      5 CAI          6.8230     0.2670     0.1050 ca         1 CD6      -0.135000
      6 CAJ          6.1630    -0.2000    -1.0240 ca         1 CD6      -0.134000
      7 CAK          6.1140     0.9590     1.0770 ca         1 CD6      -0.134000
      8 CAL          4.8020     0.0260    -1.1770 ca         1 CD6      -0.110000
      9 CAM          4.7530     1.1810     0.9210 ca         1 CD6      -0.110000
     10 CAN         -4.4230    -1.3990    -0.1080 c6         1 CD6       0.075900
     11 CAP          2.6110     0.9500    -0.3720 c3         1 CD6      -0.117100
     12 NAQ         -2.1020     0.3020    -0.5780 n2         1 CD6      -0.646900
     13 NAS          0.5010    -0.1970    -0.1170 ns         1 CD6      -0.539900
     14 SAU         -2.9910    -1.8840     0.8940 ss         1 CD6      -0.450200
     15 CAW         -4.4990     0.0920    -0.1360 ce         1 CD6      -0.220800
     16 CAX         -3.3950     2.2490    -1.0220 c          1 CD6       0.852300
     17 CAY          1.7660    -0.0910     0.3340 c          1 CD6       0.663100
     18 CAZ          0.0570    -2.3800     0.8840 c          1 CD6       0.595900
     19 CBA         -3.2700     0.8070    -0.5400 ce         1 CD6       0.457600
     20 CBB          4.0830     0.7190    -0.2080 ca         1 CD6      -0.054300
     21 CBD         -1.7680    -1.0190    -0.1580 c6         1 CD6       0.245600
     22 CBE         -0.4560    -0.9620     0.6370 c3         1 CD6       0.001700
     23 HAA         -6.5150     0.2160     0.4620 ha         1 CD6       0.119000
     24 HAAA        -5.6770     1.8270     0.1770 ha         1 CD6       0.119000
     25 HAK          6.6210     1.3310     1.9580 ha         1 CD6       0.122000
     26 HAL          4.2950    -0.3420    -2.0600 ha         1 CD6       0.132000
     27 HAM          4.2120     1.7290     1.6830 ha         1 CD6       0.132000
     28 HAN         -4.3160    -1.8170    -1.1110 h1         1 CD6       0.064700
     29 HANA        -5.3070    -1.8460     0.3440 h1         1 CD6       0.064700
     30 HAP          2.3390     0.9920    -1.4290 hc         1 CD6       0.071200
     31 HAPA         2.3270     1.9220     0.0430 hc         1 CD6       0.071200
     32 HNAS         0.1160     0.4890    -0.7510 hn         1 CD6       0.357500
     33 HAZ          0.0600    -2.6930     1.9420 h4         1 CD6      -0.003800
     34 HBD         -1.5920    -1.6300    -1.0510 h2         1 CD6       0.086700
     35 HBE         -0.6540    -0.4890     1.6080 h1         1 CD6       0.072700
     36 HAI          7.8840     0.0960     0.2250 ha         1 CD6       0.119000
     37 OAG          0.3900    -3.1160    -0.0020 o          1 CD6      -0.519100
     38 HAJ          6.7070    -0.7380    -1.7880 ha         1 CD6       0.122000
@<TRIPOS>BOND
     1     1    15 2   
     2     1    23 1   
     3     1    24 1   
     4     2    16 1   
     5     3    17 2   
     6     4    16 1   
     7     5     6 ar  
     8     5     7 ar  
     9     5    36 1   
    10     6     8 ar  
    11     6    38 1   
    12     7     9 ar  
    13     7    25 1   
    14     8    20 ar  
    15     8    26 1   
    16     9    20 ar  
    17     9    27 1   
    18    10    14 1   
    19    10    15 1   
    20    10    28 1   
    21    10    29 1   
    22    11    17 1   
    23    11    20 1   
    24    11    30 1   
    25    11    31 1   
    26    12    19 2   
    27    12    21 1   
    28    13    17 1   
    29    13    22 1   
    30    13    32 1   
    31    14    21 1   
    32    15    19 1   
    33    16    19 1   
    34    18    22 1   
    35    18    33 1   
    36    18    37 2   
    37    21    22 1   
    38    21    34 1   
    39    22    35 1   
@<TRIPOS>SUBSTRUCTURE
     1 CD6         1 TEMP              0 ****  ****    0 ROOT
