@<TRIPOS>MOLECULE
CD7
   43    44     1     0     0
SMALL
abcg2


@<TRIPOS>ATOM
      1 OAB         -5.2930    -1.9310     2.0100 o          1 CD7      -0.576100
      2 CAE         -4.5100    -1.1560     1.4990 c          1 CD7       0.593900
      3 N           -4.6040    -0.6780     0.2350 n          1 CD7      -0.408800
      4 CAL         -5.8490    -0.8370    -0.5010 c6         1 CD7       0.032700
      5 CAP         -6.7040     0.3920    -0.2900 c2         1 CD7       0.383300
      6 NAA         -7.9180     0.2470     0.0290 n2         1 CD7      -0.725100
      7 CAH         -5.9870     1.6970    -0.5210 c6         1 CD7      -0.177700
      8 CB          -4.6000     1.7530     0.1300 c6         1 CD7      -0.080400
      9 CA          -3.8330     0.4820    -0.1950 c6         1 CD7       0.012700
     10 C           -2.3970     0.4770     0.3230 c          1 CD7       0.596100
     11 O           -1.8870     1.4380     0.8550 o          1 CD7      -0.561100
     12 NAO         -1.7380    -0.6840     0.0880 ns         1 CD7      -0.366500
     13 NAN         -0.4100    -0.7910     0.3500 ns         1 CD7      -0.383500
     14 CAQ          0.5020    -0.1470    -0.4260 c          1 CD7       0.609100
     15 OAC          0.1970     0.4060    -1.4630 o          1 CD7      -0.574100
     16 CAS          1.8930    -0.1600     0.1620 c5         1 CD7      -0.156700
     17 CAI          2.0920     1.0790     1.0920 c5         1 CD7      -0.078400
     18 CAF          3.2020     1.8720     0.4190 c5         1 CD7       0.133800
     19 NAM          3.9710     0.8180    -0.2220 n3         1 CD7      -0.407100
     20 CAK          2.9930    -0.0310    -0.8890 c5         1 CD7       0.140800
     21 H1          -3.6230    -0.7950     2.0380 h5         1 CD7       0.023200
     22 H2          -5.6120    -0.9500    -1.5630 h1         1 CD7       0.082700
     23 H3          -6.3700    -1.7320    -0.1720 h1         1 CD7       0.082700
     24 H4          -8.3720     1.1520     0.1370 hn         1 CD7       0.373400
     25 H5          -5.8670     1.8150    -1.6040 hc         1 CD7       0.056200
     26 H6          -6.5990     2.5310    -0.1770 hc         1 CD7       0.056200
     27 H7          -4.0660     2.6260    -0.2430 hc         1 CD7       0.070200
     28 H8          -4.6910     1.8610     1.2140 hc         1 CD7       0.070200
     29 H9          -3.7410     0.4020    -1.2860 h1         1 CD7       0.081700
     30 H10         -2.1640    -1.4270    -0.4460 hn         1 CD7       0.345500
     31 H11         -0.1510    -1.1600     1.2540 hn         1 CD7       0.336500
     32 H12          2.0270    -1.0720     0.7460 hc         1 CD7       0.063700
     33 H13          1.1850     1.6710     1.2080 hc         1 CD7       0.050200
     34 H14          2.3940     0.7450     2.0840 hc         1 CD7       0.050200
     35 H15          2.7840     2.5740    -0.3150 h1         1 CD7       0.061200
     36 H16          3.8190     2.4320     1.1210 h1         1 CD7       0.061200
     37 O1           4.8420     1.3700    -1.1740 os         1 CD7      -0.400000
     38 H19          3.4330    -0.9900    -1.1580 h1         1 CD7       0.074200
     39 H20          2.6080     0.4460    -1.7990 h1         1 CD7       0.074200
     40 S1           6.4050     0.8740    -0.8920 s6         1 CD7       1.507300
     41 O3           7.0710     1.5540    -2.0010 o          1 CD7      -0.708200
     42 O2           6.7500     1.3770     0.4370 o          1 CD7      -0.708200
     43 O4           6.3780    -0.5850    -0.9920 o          1 CD7      -0.708200
@<TRIPOS>BOND
     1     1     2 2   
     2     2     3 1   
     3     2    21 1   
     4     3     4 1   
     5     3     9 1   
     6     4     5 1   
     7     4    22 1   
     8     4    23 1   
     9     5     6 2   
    10     5     7 1   
    11     6    24 1   
    12     7     8 1   
    13     7    25 1   
    14     7    26 1   
    15     8     9 1   
    16     8    27 1   
    17     8    28 1   
    18     9    10 1   
    19     9    29 1   
    20    10    11 2   
    21    10    12 1   
    22    12    13 1   
    23    12    30 1   
    24    13    14 1   
    25    13    31 1   
    26    14    15 2   
    27    14    16 1   
    28    16    17 1   
    29    16    20 1   
    30    16    32 1   
    31    17    18 1   
    32    17    33 1   
    33    17    34 1   
    34    18    19 1   
    35    18    35 1   
    36    18    36 1   
    37    19    20 1   
    38    19    37 1   
    39    20    38 1   
    40    20    39 1   
    41    37    40 1   
    42    40    41 1   
    43    40    42 1   
    44    40    43 1   
@<TRIPOS>SUBSTRUCTURE
     1 CD7         1 TEMP              0 ****  ****    0 ROOT
