@<TRIPOS>MOLECULE
CD7
   43    44     1     0     0
SMALL
No Charge or Current Charge


@<TRIPOS>ATOM
      1 OAB         -6.3520    -2.3000     2.3510 o          1 CD7      -0.576100
      2 CAE         -5.4400    -2.0820     1.5600 c          1 CD7       0.593900
      3 N           -5.3220    -0.8740     0.8400 n          1 CD7      -0.408800
      4 CAL         -6.3190     0.2360     0.9800 c6         1 CD7       0.032700
      5 CAP         -6.8180     0.8110    -0.3450 c2         1 CD7       0.383300
      6 NAA         -7.9830     1.3340    -0.4860 n2         1 CD7      -0.725100
      7 CAH         -5.8340     0.7160    -1.5020 c6         1 CD7      -0.177700
      8 CB          -4.3700     0.6220    -1.0070 c6         1 CD7      -0.080400
      9 CA          -4.1580    -0.6220    -0.0830 c6         1 CD7       0.012700
     10 C           -2.7480    -0.6730     0.6040 c          1 CD7       0.596100
     11 O           -2.5140    -1.4100     1.5540 o          1 CD7      -0.561100
     12 NAO         -1.7460     0.1220     0.0620 ns         1 CD7      -0.366500
     13 NAN         -0.3730     0.0370     0.4570 ns         1 CD7      -0.383500
     14 CAQ          0.5620     1.0160     0.1660 c          1 CD7       0.609100
     15 OAC          0.2620     2.1020    -0.3120 o          1 CD7      -0.574100
     16 CAS          1.9800     0.5180     0.5390 c5         1 CD7      -0.156700
     17 CAI          2.6770     1.4960     1.5570 c5         1 CD7      -0.078400
     18 CAF          3.8790     2.0600     0.7510 c5         1 CD7       0.133800
     19 NAM          4.1860     0.9040    -0.1120 n3         1 CD7      -0.407100
     20 CAK          2.8860     0.5760    -0.7270 c5         1 CD7       0.140800
     21 H1          -4.6410    -2.8100     1.3300 h5         1 CD7       0.023200
     22 H2          -7.1900    -0.1110     1.5530 h1         1 CD7       0.082700
     23 H3          -5.8640     1.0470     1.5650 h1         1 CD7       0.082700
     24 H4          -8.0990     1.6470    -1.4610 hn         1 CD7       0.373400
     25 H5          -6.0760    -0.1700    -2.1050 hc         1 CD7       0.056200
     26 H6          -5.9460     1.5860    -2.1640 hc         1 CD7       0.056200
     27 H7          -3.6970     0.5740    -1.8750 hc         1 CD7       0.070200
     28 H8          -4.1180     1.5430    -0.4610 hc         1 CD7       0.070200
     29 H9          -4.1270    -1.4840    -0.7660 h1         1 CD7       0.081700
     30 H10         -1.9360     0.5900    -0.8210 hn         1 CD7       0.345500
     31 H11         -0.0280    -0.8850     0.7160 hn         1 CD7       0.336500
     32 H12          1.9460    -0.4990     0.9470 hc         1 CD7       0.063700
     33 H13          2.0190     2.2940     1.9190 hc         1 CD7       0.050200
     34 H14          3.0270     0.9480     2.4390 hc         1 CD7       0.050200
     35 H15          3.5790     2.9390     0.1620 h1         1 CD7       0.061200
     36 H16          4.7230     2.3460     1.3930 h1         1 CD7       0.061200
     37 O1           5.0340     1.4480    -1.2290 os         1 CD7      -0.400000
     38 H19          2.9060    -0.3740    -1.2790 h1         1 CD7       0.074200
     39 H20          2.5650     1.3670    -1.4210 h1         1 CD7       0.074200
     40 S1           6.5130     0.7150    -1.5010 s6         1 CD7       1.507300
     41 O3           7.0810     1.4650    -2.6350 o          1 CD7      -0.708200
     42 O2           7.2530     0.8870    -0.2380 o          1 CD7      -0.708200
     43 O4           6.1820    -0.6870    -1.8150 o          1 CD7      -0.708200
@<TRIPOS>BOND
     1     1     2 2   
     2     2     3 1   
     3     2    21 1   
     4     3     4 1   
     5     3     9 1   
     6     4     5 1   
     7     4    22 1   
     8     4    23 1   
     9     5     6 2   
    10     5     7 1   
    11     6    24 1   
    12     7     8 1   
    13     7    25 1   
    14     7    26 1   
    15     8     9 1   
    16     8    27 1   
    17     8    28 1   
    18     9    10 1   
    19     9    29 1   
    20    10    11 2   
    21    10    12 1   
    22    12    13 1   
    23    12    30 1   
    24    13    14 1   
    25    13    31 1   
    26    14    15 2   
    27    14    16 1   
    28    16    17 1   
    29    16    20 1   
    30    16    32 1   
    31    17    18 1   
    32    17    33 1   
    33    17    34 1   
    34    18    19 1   
    35    18    35 1   
    36    18    36 1   
    37    19    20 1   
    38    19    37 1   
    39    20    38 1   
    40    20    39 1   
    41    37    40 1   
    42    40    41 1   
    43    40    42 1   
    44    40    43 1   
@<TRIPOS>SUBSTRUCTURE
     1 CD7         1 TEMP              0 ****  ****    0 ROOT
