@<TRIPOS>MOLECULE
CD8
   39    40     1     0     0
SMALL
abcg2


@<TRIPOS>ATOM
      1 CAA          4.9390    -1.3130     0.2240 c2         1 CD8      -0.256000
      2 OAF          2.0290    -3.4940    -0.0840 o          1 CD8      -0.694500
      3 OAG         -2.5870     2.1160    -0.3610 o          1 CD8      -0.633100
      4 OAH          0.1020     3.8300    -0.4530 o          1 CD8      -0.502100
      5 OAI          2.5700    -2.6850     1.9340 o          1 CD8      -0.694500
      6 CAJ         -5.3110    -2.0620    -0.0090 ca         1 CD8      -0.098000
      7 CAK         -5.5350    -0.8620    -0.6720 ca         1 CD8      -0.126500
      8 CAL         -4.0880    -2.2940     0.6060 ca         1 CD8      -0.126500
      9 CAM         -4.5420     0.1030    -0.7180 ca         1 CD8      -0.066000
     10 CAN         -3.0880    -1.3360     0.5500 ca         1 CD8      -0.066000
     11 CAO          3.9050     0.4940    -1.1110 c6         1 CD8       0.098800
     12 NAQ          1.4000    -0.5740    -0.0800 n2         1 CD8      -0.643900
     13 NAS         -0.9930     0.5590    -0.0590 ns         1 CD8      -0.509900
     14 OAT          0.4940     1.7770     1.3260 os         1 CD8      -0.419000
     15 SAV          2.8130     1.7760    -0.4340 ss         1 CD8      -0.463000
     16 CAX          3.8370    -0.7080    -0.2230 ce         1 CD8      -0.217800
     17 CAY          2.3500    -2.6010     0.7150 c          1 CD8       0.639700
     18 CAZ         -2.2790     0.9460    -0.1850 c          1 CD8       0.613700
     19 CBA         -0.1520     2.7170    -0.8240 c          1 CD8       0.578900
     20 CBB          2.4860    -1.2040     0.1190 ce         1 CD8       0.463600
     21 CBC         -3.3060    -0.1310    -0.1170 ca         1 CD8      -0.145600
     22 CBE          1.3220     0.7470    -0.6220 c6         1 CD8       0.285500
     23 CBF          0.1140     1.4700     0.0280 c3         1 CD8       0.247400
     24 HAA          5.9210    -0.9470    -0.0450 ha         1 CD8       0.168500
     25 HAAA         4.9040    -2.1720     0.8780 ha         1 CD8       0.168500
     26 HAC         -0.0030     2.4280     3.1630 h1         1 CD8       0.031700
     27 HACA        -0.9870     3.1540     1.8860 h1         1 CD8       0.031700
     28 HACB        -1.2740     1.4760     2.3960 h1         1 CD8       0.031700
     29 HAJ         -6.0890    -2.8120     0.0330 ha         1 CD8       0.105000
     30 HAK         -6.4870    -0.6760    -1.1520 ha         1 CD8       0.112500
     31 HAL         -3.9120    -3.2210     1.1360 ha         1 CD8       0.112500
     32 HAM         -4.7240     1.0390    -1.2290 ha         1 CD8       0.133500
     33 HAN         -2.1530    -1.5360     1.0590 ha         1 CD8       0.133500
     34 HAO          3.5880     0.2580    -2.1300 h1         1 CD8       0.061200
     35 HAOA         4.9130     0.9030    -1.1580 h1         1 CD8       0.061200
     36 HNAS        -0.7380    -0.4160     0.0360 hn         1 CD8       0.370500
     37 HBA         -0.4700     2.4950    -1.8570 h4         1 CD8      -0.007800
     38 HBE          1.1130     0.6580    -1.6950 h2         1 CD8       0.067700
     39 CAC         -0.5050     2.2330     2.2180 c3         1 CD8       0.151900
@<TRIPOS>BOND
     1     1    16 2   
     2     1    24 1   
     3     1    25 1   
     4     2    17 1   
     5     3    18 2   
     6     4    19 2   
     7     5    17 1   
     8     6     7 ar  
     9     6     8 ar  
    10     6    29 1   
    11     7     9 ar  
    12     7    30 1   
    13     8    10 ar  
    14     8    31 1   
    15     9    21 ar  
    16     9    32 1   
    17    10    21 ar  
    18    10    33 1   
    19    11    15 1   
    20    11    16 1   
    21    11    34 1   
    22    11    35 1   
    23    12    20 2   
    24    12    22 1   
    25    13    18 1   
    26    13    23 1   
    27    13    36 1   
    28    14    23 1   
    29    14    39 1   
    30    15    22 1   
    31    16    20 1   
    32    17    20 1   
    33    18    21 1   
    34    19    23 1   
    35    19    37 1   
    36    22    23 1   
    37    22    38 1   
    38    26    39 1   
    39    27    39 1   
    40    28    39 1   
@<TRIPOS>SUBSTRUCTURE
     1 CD8         1 TEMP              0 ****  ****    0 ROOT
