@<TRIPOS>MOLECULE
CD8
   39    40     1     0     0
SMALL
No Charge or Current Charge


@<TRIPOS>ATOM
      1 CAA          4.7200    -1.1190     0.7630 c2         1 CD8      -0.256000
      2 OAF          0.4020    -2.0250     1.2620 o          1 CD8      -0.694500
      3 OAG         -2.6370     2.0660    -0.0230 o          1 CD8      -0.633100
      4 OAH          0.0940     3.9460    -0.2570 o          1 CD8      -0.502100
      5 OAI          2.2730    -2.0630     2.2870 o          1 CD8      -0.694500
      6 CAJ         -5.2090    -2.3160    -0.2140 ca         1 CD8      -0.098000
      7 CAK         -5.6150    -0.9830    -0.0490 ca         1 CD8      -0.126500
      8 CAL         -3.8460    -2.6170    -0.3530 ca         1 CD8      -0.126500
      9 CAM         -4.6600     0.0470    -0.0220 ca         1 CD8      -0.066000
     10 CAN         -2.8860    -1.5900    -0.3270 ca         1 CD8      -0.066000
     11 CAO          4.0640     0.3130    -1.1610 c6         1 CD8       0.098800
     12 NAQ          1.4860    -0.6310    -0.8940 n2         1 CD8      -0.643900
     13 NAS         -0.9530     0.5560    -0.2250 ns         1 CD8      -0.509900
     14 OAT          0.8150     1.5450     1.1210 os         1 CD8      -0.419000
     15 SAV          2.9130     1.7510    -1.1380 ss         1 CD8      -0.463000
     16 CAX          3.7130    -0.6530    -0.0200 ce         1 CD8      -0.217800
     17 CAY          1.6010    -1.7490     1.3080 c          1 CD8       0.639700
     18 CAZ         -2.2820     0.9020    -0.1270 c          1 CD8       0.613700
     19 CBA         -0.0940     2.8650    -0.8160 c          1 CD8       0.578900
     20 CBB          2.2520    -0.9890     0.1080 ce         1 CD8       0.463600
     21 CBC         -3.2810    -0.2380    -0.1590 ca         1 CD8      -0.145600
     22 CBE          1.3200     0.8100    -1.1670 c6         1 CD8       0.285500
     23 CBF          0.2290     1.4500    -0.2120 c3         1 CD8       0.247400
     24 HAA          5.7560    -0.8200     0.5970 ha         1 CD8       0.168500
     25 HAAA         4.5690    -1.8180     1.5840 ha         1 CD8       0.168500
     26 HAC          0.5160     2.0320     3.1310 h1         1 CD8       0.031700
     27 HACA        -0.5570     2.8810     2.0030 h1         1 CD8       0.031700
     28 HACB        -0.8280     1.1610     2.3740 h1         1 CD8       0.031700
     29 HAJ         -5.9490    -3.1130    -0.2350 ha         1 CD8       0.105000
     30 HAK         -6.6710    -0.7470     0.0580 ha         1 CD8       0.112500
     31 HAL         -3.5300    -3.6500    -0.4820 ha         1 CD8       0.112500
     32 HAM         -4.9980     1.0740     0.1070 ha         1 CD8       0.133500
     33 HAN         -1.8410    -1.8670    -0.4410 ha         1 CD8       0.133500
     34 HAO          3.9770    -0.1940    -2.1330 h1         1 CD8       0.061200
     35 HAOA         5.0920     0.6920    -1.0620 h1         1 CD8       0.061200
     36 HNAS        -0.7460    -0.4350    -0.2550 hn         1 CD8       0.370500
     37 HBA         -0.5220     2.8370    -1.8430 h4         1 CD8      -0.007800
     38 HBE          0.9500     0.8970    -2.2000 h2         1 CD8       0.067700
     39 CAC         -0.0590     1.9250     2.2030 c3         1 CD8       0.151900
@<TRIPOS>BOND
     1     1    16 2   
     2     1    24 1   
     3     1    25 1   
     4     2    17 1   
     5     3    18 2   
     6     4    19 2   
     7     5    17 1   
     8     6     7 ar  
     9     6     8 ar  
    10     6    29 1   
    11     7     9 ar  
    12     7    30 1   
    13     8    10 ar  
    14     8    31 1   
    15     9    21 ar  
    16     9    32 1   
    17    10    21 ar  
    18    10    33 1   
    19    11    15 1   
    20    11    16 1   
    21    11    34 1   
    22    11    35 1   
    23    12    20 2   
    24    12    22 1   
    25    13    18 1   
    26    13    23 1   
    27    13    36 1   
    28    14    23 1   
    29    14    39 1   
    30    15    22 1   
    31    16    20 1   
    32    17    20 1   
    33    18    21 1   
    34    19    23 1   
    35    19    37 1   
    36    22    23 1   
    37    22    38 1   
    38    26    39 1   
    39    27    39 1   
    40    28    39 1   
@<TRIPOS>SUBSTRUCTURE
     1 CD8         1 TEMP              0 ****  ****    0 ROOT
