@<TRIPOS>MOLECULE
CD9
   35    38     1     0     0
SMALL
No Charge or Current Charge


@<TRIPOS>ATOM
      1 C1           4.1280     1.0140     0.2470 ca         1 CD9      -0.155000
      2 C2           2.8870     1.4780    -0.2430 ca         1 CD9       0.152000
      3 C3           1.8100     0.5890    -0.4200 ca         1 CD9      -0.125000
      4 C4           2.0230    -0.7670    -0.1330 ca         1 CD9      -0.005000
      5 C5           3.2180    -1.2180     0.3900 ca         1 CD9      -0.156300
      6 C6           4.2990    -0.3460     0.5810 ca         1 CD9      -0.060000
      7 C7           3.1110    -2.6910     0.7370 c5         1 CD9      -0.120100
      8 C8           1.6470    -3.0510     0.3410 c          1 CD9       0.561000
      9 O9           1.0800    -4.1360     0.3790 o          1 CD9      -0.516000
     10 N10          1.1000    -1.8390    -0.1250 n          1 CD9      -0.206400
     11 C11         -0.2480    -1.7500    -0.7210 c3         1 CD9       0.147300
     12 C12         -1.2180    -0.8770     0.0810 ca         1 CD9      -0.084300
     13 C13         -1.3010    -1.0530     1.4880 ca         1 CD9      -0.131000
     14 C14         -2.1680    -0.2620     2.2670 ca         1 CD9      -0.127000
     15 C15         -2.9410     0.7020     1.6150 ca         1 CD9       0.025100
     16 C16         -2.8780     0.8790     0.2610 ca         1 CD9       0.071100
     17 C17         -2.0330     0.1070    -0.5530 ca         1 CD9      -0.099600
     18 C18         -2.0220     0.3310    -2.0400 c          1 CD9       0.720600
     19 O19         -2.4480    -0.5630    -2.7570 o          1 CD9      -0.705000
     20 O20         -1.5280     1.3650    -2.4650 o          1 CD9      -0.705000
     21 O21         -3.7410     1.8390    -0.1660 os         1 CD9      -0.306100
     22 C22         -4.2780     2.3780     1.0910 c5         1 CD9       0.366600
     23 O23         -3.8390     1.5280     2.2080 os         1 CD9      -0.368100
     24 Cl24         2.6800     3.1840    -0.6160 cl         1 CD9      -0.215000
     25 H1           4.9490     1.7120     0.3870 ha         1 CD9       0.120000
     26 H3           0.8500     0.9520    -0.7750 ha         1 CD9       0.162000
     27 H6           5.2410    -0.7060     0.9910 ha         1 CD9       0.110000
     28 H17          3.8010    -3.3390     0.1870 hc         1 CD9       0.081200
     29 H27          3.2500    -2.9040     1.8010 hc         1 CD9       0.081200
     30 H111        -0.1290    -1.3640    -1.7400 h1         1 CD9       0.097700
     31 H211        -0.6780    -2.7560    -0.8130 h1         1 CD9       0.097700
     32 H13         -0.6910    -1.8070     1.9790 ha         1 CD9       0.097000
     33 H14         -2.2370    -0.3970     3.3440 ha         1 CD9       0.108000
     34 H122        -3.8830     3.3900     1.2390 h2         1 CD9       0.043200
     35 H222        -5.3730     2.4000     1.0480 h2         1 CD9       0.043200
@<TRIPOS>BOND
     1     1     2 ar  
     2     1     6 ar  
     3     1    25 1   
     4     2     3 ar  
     5     2    24 1   
     6     3     4 ar  
     7     3    26 1   
     8     4     5 ar  
     9     4    10 1   
    10     5     6 ar  
    11     5     7 1   
    12     6    27 1   
    13     7     8 1   
    14     7    28 1   
    15     7    29 1   
    16     8     9 2   
    17     8    10 1   
    18    10    11 1   
    19    11    12 1   
    20    11    30 1   
    21    11    31 1   
    22    12    13 ar  
    23    12    17 ar  
    24    13    14 ar  
    25    13    32 1   
    26    14    15 ar  
    27    14    33 1   
    28    15    16 ar  
    29    15    23 1   
    30    16    17 ar  
    31    16    21 1   
    32    17    18 1   
    33    18    19 1   
    34    18    20 1   
    35    21    22 1   
    36    22    23 1   
    37    22    34 1   
    38    22    35 1   
@<TRIPOS>SUBSTRUCTURE
     1 CD9         1 TEMP              0 ****  ****    0 ROOT
