@<TRIPOS>MOLECULE
CD9
   35    38     1     0     0
SMALL
bcc


@<TRIPOS>ATOM
      1 C1           4.5590     0.6390     0.6370 ca         1 CD9      -0.173000
      2 C2           3.5200     1.3250     0.0310 ca         1 CD9       0.060400
      3 C3           2.3280     0.7080    -0.3370 ca         1 CD9      -0.143000
      4 C4           2.2260    -0.6440    -0.0720 ca         1 CD9       0.087600
      5 C5           3.2520    -1.3640     0.5410 ca         1 CD9      -0.156300
      6 C6           4.4180    -0.7250     0.8950 ca         1 CD9      -0.078000
      7 C7           2.8000    -2.7790     0.6880 c5         1 CD9      -0.120100
      8 C8           1.4060    -2.7630     0.0890 c          1 CD9       0.703500
      9 O9           0.6370    -3.6940    -0.0100 o          1 CD9      -0.591500
     10 N10          1.1520    -1.4860    -0.3370 n          1 CD9      -0.366000
     11 C11         -0.0600    -1.0730    -0.9970 c3         1 CD9       0.147300
     12 C12         -1.0760    -0.4230    -0.0780 ca         1 CD9      -0.084300
     13 C13         -0.8060    -0.2620     1.2730 ca         1 CD9      -0.149000
     14 C14         -1.7150     0.3360     2.1540 ca         1 CD9      -0.145000
     15 C15         -2.9060     0.7450     1.6180 ca         1 CD9       0.025100
     16 C16         -3.2010     0.5570     0.2760 ca         1 CD9       0.071100
     17 C17         -2.3170    -0.0070    -0.6160 ca         1 CD9      -0.099600
     18 C18         -2.7090    -0.1640    -2.0800 c          1 CD9       0.931200
     19 O19         -3.8590    -0.5830    -2.2900 o          1 CD9      -0.810300
     20 O20         -1.8520     0.1520    -2.9250 o          1 CD9      -0.810300
     21 O21         -4.4530     1.0280     0.0340 os         1 CD9      -0.282900
     22 C22         -4.8310     1.7470     1.1960 c5         1 CD9       0.320200
     23 O23         -3.9610     1.3320     2.2390 os         1 CD9      -0.344900
     24 CL24         3.6990     3.0220    -0.2810 cl         1 CD9      -0.123400
     25 H1           5.4690     1.1540     0.9120 ha         1 CD9       0.138000
     26 H3           1.5270     1.2680    -0.7990 ha         1 CD9       0.180000
     27 H6           5.2260    -1.2660     1.3710 ha         1 CD9       0.128000
     28 H17          3.4280    -3.4940     0.1500 hc         1 CD9       0.081200
     29 H27          2.7550    -3.1120     1.7280 hc         1 CD9       0.081200
     30 H111         0.2010    -0.3930    -1.8070 h1         1 CD9       0.097700
     31 H211        -0.4910    -1.9550    -1.4720 h1         1 CD9       0.097700
     32 H13          0.1360    -0.6010     1.6820 ha         1 CD9       0.115000
     33 H14         -1.4820     0.4620     3.2020 ha         1 CD9       0.126000
     34 H122        -4.7170     2.8240     1.0240 h2         1 CD9       0.043200
     35 H222        -5.8620     1.5110     1.4580 h2         1 CD9       0.043200
@<TRIPOS>BOND
     1     1     2 ar  
     2     1     6 ar  
     3     1    25 1   
     4     2     3 ar  
     5     2    24 1   
     6     3     4 ar  
     7     3    26 1   
     8     4     5 ar  
     9     4    10 1   
    10     5     6 ar  
    11     5     7 1   
    12     6    27 1   
    13     7     8 1   
    14     7    28 1   
    15     7    29 1   
    16     8     9 2   
    17     8    10 1   
    18    10    11 1   
    19    11    12 1   
    20    11    30 1   
    21    11    31 1   
    22    12    13 ar  
    23    12    17 ar  
    24    13    14 ar  
    25    13    32 1   
    26    14    15 ar  
    27    14    33 1   
    28    15    16 ar  
    29    15    23 1   
    30    16    17 ar  
    31    16    21 1   
    32    17    18 1   
    33    18    19 1   
    34    18    20 1   
    35    21    22 1   
    36    22    23 1   
    37    22    34 1   
    38    22    35 1   
@<TRIPOS>SUBSTRUCTURE
     1 CD9         1 TEMP              0 ****  ****    0 ROOT
