@<TRIPOS>MOLECULE
CDA
   50    52     1     0     0
SMALL
bcc


@<TRIPOS>ATOM
      1 N1           1.2560    -0.3830    -6.3080 nb         1 CDA      -0.640000
      2 C2           0.0040     0.0410    -6.1900 ca         1 CDA       0.336600
      3 C3          -0.9010     0.0470    -7.2390 ca         1 CDA      -0.208300
      4 C4          -0.4630    -0.4000    -8.4790 ca         1 CDA      -0.096000
      5 C5           0.8450    -0.8340    -8.6140 ca         1 CDA      -0.232300
      6 C6           1.6650    -0.8070    -7.4940 ca         1 CDA       0.403200
      7 C11         -0.3720     0.4870    -4.7980 c3         1 CDA       0.361300
      8 C12         -0.4250    -0.6630    -3.8030 c3         1 CDA       0.193800
      9 F13         -1.5840     1.1150    -4.8230 f          1 CDA      -0.229800
     10 F1           0.5170     1.4260    -4.3720 f          1 CDA      -0.229800
     11 N18         -0.7370    -0.2310    -2.4760 nu         1 CDA      -0.833200
     12 C21          0.1960     0.0030    -1.5280 cc         1 CDA       0.605200
     13 C22         -0.3470     0.4390    -0.2290 c          1 CDA       0.567200
     14 N23          0.5930     0.7000     0.7210 n          1 CDA      -0.307000
     15 C24          1.9430     0.4540     0.5170 cc         1 CDA      -0.034600
     16 C25          2.3210     0.0300    -0.7090 cd         1 CDA       0.030600
     17 N26          1.4580    -0.1800    -1.7400 nd         1 CDA      -0.612300
     18 O28         -1.5490     0.5710    -0.0260 o          1 CDA      -0.645500
     19 C29          2.9100     0.6560     1.6340 c3         1 CDA      -0.049900
     20 C33          0.0890     1.1200     2.0070 c3         1 CDA      -0.003000
     21 C34         -0.3880    -0.0790     2.8190 c          1 CDA       0.663100
     22 N37         -1.1210     0.2560     3.8910 ns         1 CDA      -0.571900
     23 O38         -0.0890    -1.2170     2.5100 o          1 CDA      -0.576100
     24 C39         -1.5690    -0.6810     4.8940 c3         1 CDA       0.052700
     25 C40         -0.9330    -0.4260     6.2360 ca         1 CDA       0.348600
     26 C43          0.4440    -0.4740     6.4180 ca         1 CDA       0.031600
     27 C44          1.0120    -0.2280     7.6480 ca         1 CDA      -0.137000
     28 C45          0.1550     0.0640     8.6990 ca         1 CDA      -0.216300
     29 N46         -1.7330    -0.1460     7.2570 nb         1 CDA      -0.649000
     30 F47          1.2300    -0.7720     5.3750 f          1 CDA      -0.127900
     31 C50         -1.2080     0.0890     8.4530 ca         1 CDA       0.390200
     32 H3          -1.9190     0.3870    -7.1110 ha         1 CDA       0.157000
     33 H4          -1.1390    -0.4070    -9.3240 ha         1 CDA       0.141000
     34 H5           1.2260    -1.1880    -9.5610 ha         1 CDA       0.145000
     35 H6           2.6930    -1.1430    -7.5600 h4         1 CDA       0.025100
     36 H121         0.5360    -1.1760    -3.8090 h1         1 CDA       0.085700
     37 H122        -1.1780    -1.3770    -4.1430 h1         1 CDA       0.085700
     38 H18         -1.6980    -0.0650    -2.2300 hn         1 CDA       0.468800
     39 H25          3.3670    -0.1610    -0.9090 h4         1 CDA       0.167000
     40 H291         3.9040     0.3670     1.3000 hc         1 CDA       0.053033
     41 H292         2.9640     1.6950     1.9620 hc         1 CDA       0.053033
     42 H293         2.6620     0.0430     2.5030 hc         1 CDA       0.053033
     43 H331         0.8730     1.6350     2.5610 h1         1 CDA       0.081700
     44 H332        -0.7170     1.8400     1.8660 h1         1 CDA       0.081700
     45 H37         -1.3350     1.2290     4.0460 hn         1 CDA       0.316500
     46 H391        -2.6500    -0.6070     5.0170 h1         1 CDA       0.085200
     47 H392        -1.3470    -1.6900     4.5450 h1         1 CDA       0.085200
     48 H44          2.0850    -0.2660     7.7810 ha         1 CDA       0.157000
     49 H45          0.5400     0.2680     9.6880 ha         1 CDA       0.148000
     50 H50         -1.9050     0.3100     9.2520 h4         1 CDA       0.027100
@<TRIPOS>BOND
     1     1     2 ar  
     2     1     6 ar  
     3     2     3 ar  
     4     2     7 1   
     5     3     4 ar  
     6     3    32 1   
     7     4     5 ar  
     8     4    33 1   
     9     5     6 ar  
    10     5    34 1   
    11     6    35 1   
    12     7     8 1   
    13     7     9 1   
    14     7    10 1   
    15     8    11 1   
    16     8    36 1   
    17     8    37 1   
    18    11    12 1   
    19    11    38 1   
    20    12    13 1   
    21    12    17 2   
    22    13    14 1   
    23    13    18 2   
    24    14    15 1   
    25    14    20 1   
    26    15    16 2   
    27    15    19 1   
    28    16    17 1   
    29    16    39 1   
    30    19    40 1   
    31    19    41 1   
    32    19    42 1   
    33    20    21 1   
    34    20    43 1   
    35    20    44 1   
    36    21    22 1   
    37    21    23 2   
    38    22    24 1   
    39    22    45 1   
    40    24    25 1   
    41    24    46 1   
    42    24    47 1   
    43    25    26 ar  
    44    25    29 ar  
    45    26    27 ar  
    46    26    30 1   
    47    27    28 ar  
    48    27    48 1   
    49    28    31 ar  
    50    28    49 1   
    51    29    31 ar  
    52    31    50 1   
@<TRIPOS>SUBSTRUCTURE
     1 CDA         1 TEMP              0 ****  ****    0 ROOT
