@<TRIPOS>MOLECULE
CDA
   50    52     1     0     0
SMALL
No Charge or Current Charge


@<TRIPOS>ATOM
      1 N1           1.1330    -1.3090    -6.4560 nb         1 CDA      -0.640000
      2 C2           0.2630    -0.2860    -6.2420 ca         1 CDA       0.271300
      3 C3          -0.0900     0.6140    -7.2700 ca         1 CDA      -0.125000
      4 C4           0.4690     0.4630    -8.5500 ca         1 CDA      -0.078000
      5 C5           1.3680    -0.5950    -8.7590 ca         1 CDA      -0.149000
      6 C6           1.6710    -1.4540    -7.6900 ca         1 CDA       0.337900
      7 C11         -0.3560    -0.1210    -4.8390 c3         1 CDA       0.118700
      8 C12          0.1930    -1.1370    -3.7900 c3         1 CDA       0.193800
      9 F13         -1.7030    -0.2620    -4.9070 f          1 CDA      -0.108500
     10 F1          -0.1350     1.1360    -4.3790 f          1 CDA      -0.108500
     11 N18         -0.4150    -0.9700    -2.4400 nu         1 CDA      -0.888400
     12 C21          0.0860    -0.2510    -1.3670 cc         1 CDA       0.605200
     13 C22         -0.8610     0.0010    -0.2170 c          1 CDA       0.424700
     14 N23         -0.2810     0.7410     0.8280 n          1 CDA      -0.240000
     15 C24          1.0630     1.1410     0.7420 cc         1 CDA      -0.034600
     16 C25          1.8560     0.8560    -0.3700 cd         1 CDA      -0.019400
     17 N26          1.3550     0.1380    -1.4660 nd         1 CDA      -0.612300
     18 O28         -2.0310    -0.3920    -0.1780 o          1 CDA      -0.570000
     19 C29          1.6750     1.9040     1.8990 c3         1 CDA      -0.049900
     20 C33         -1.1320     1.0500     2.0220 c3         1 CDA      -0.003000
     21 C34         -1.0620     0.0080     3.1530 c          1 CDA       0.596100
     22 N37         -1.8190     0.3130     4.2650 ns         1 CDA      -0.504900
     23 O38         -0.3910    -1.0140     3.0920 o          1 CDA      -0.576100
     24 C39         -1.8560    -0.5020     5.4950 c3         1 CDA       0.052700
     25 C40         -0.5520    -0.4540     6.2990 ca         1 CDA       0.283300
     26 C43          0.2280    -1.6180     6.5210 ca         1 CDA       0.132000
     27 C44          1.4160    -1.5140     7.2620 ca         1 CDA      -0.119000
     28 C45          1.7820    -0.2500     7.7570 ca         1 CDA      -0.133000
     29 N46         -0.1950     0.7670     6.7840 nb         1 CDA      -0.649000
     30 F47         -0.1530    -2.8240     6.0380 f          1 CDA      -0.163000
     31 C50          0.9530     0.8580     7.4970 ca         1 CDA       0.324900
     32 H3          -0.7910     1.4210    -7.0730 ha         1 CDA       0.139000
     33 H4           0.2110     1.1460    -9.3570 ha         1 CDA       0.123000
     34 H5           1.8260    -0.7530    -9.7310 ha         1 CDA       0.127000
     35 H6           2.3640    -2.2830    -7.8240 h4         1 CDA       0.025100
     36 H121         1.2870    -1.0380    -3.7430 h1         1 CDA       0.085700
     37 H122        -0.0090    -2.1540    -4.1560 h1         1 CDA       0.085700
     38 H18         -1.4040    -1.2010    -2.3260 hn         1 CDA       0.524000
     39 H25          2.8950     1.1760    -0.4300 h4         1 CDA       0.217000
     40 H291         2.7520     2.0530     1.7570 hc         1 CDA       0.053033
     41 H292         1.2230     2.8970     2.0000 hc         1 CDA       0.053033
     42 H293         1.5490     1.3670     2.8460 hc         1 CDA       0.053033
     43 H331        -0.8580     2.0230     2.4450 h1         1 CDA       0.081700
     44 H332        -2.1840     1.1370     1.7240 h1         1 CDA       0.081700
     45 H37         -2.3350     1.1860     4.2470 hn         1 CDA       0.316500
     46 H391        -2.6720    -0.1370     6.1330 h1         1 CDA       0.085200
     47 H392        -2.0950    -1.5380     5.2240 h1         1 CDA       0.085200
     48 H44          2.0330    -2.3900     7.4470 ha         1 CDA       0.139000
     49 H45          2.6930    -0.1210     8.3360 ha         1 CDA       0.130000
     50 H50          1.2160     1.8460     7.8720 h4         1 CDA       0.027100
@<TRIPOS>BOND
     1     1     2 ar  
     2     1     6 ar  
     3     2     3 ar  
     4     2     7 1   
     5     3     4 ar  
     6     3    32 1   
     7     4     5 ar  
     8     4    33 1   
     9     5     6 ar  
    10     5    34 1   
    11     6    35 1   
    12     7     8 1   
    13     7     9 1   
    14     7    10 1   
    15     8    11 1   
    16     8    36 1   
    17     8    37 1   
    18    11    12 1   
    19    11    38 1   
    20    12    13 1   
    21    12    17 2   
    22    13    14 1   
    23    13    18 2   
    24    14    15 1   
    25    14    20 1   
    26    15    16 2   
    27    15    19 1   
    28    16    17 1   
    29    16    39 1   
    30    19    40 1   
    31    19    41 1   
    32    19    42 1   
    33    20    21 1   
    34    20    43 1   
    35    20    44 1   
    36    21    22 1   
    37    21    23 2   
    38    22    24 1   
    39    22    45 1   
    40    24    25 1   
    41    24    46 1   
    42    24    47 1   
    43    25    26 ar  
    44    25    29 ar  
    45    26    27 ar  
    46    26    30 1   
    47    27    28 ar  
    48    27    48 1   
    49    28    31 ar  
    50    28    49 1   
    51    29    31 ar  
    52    31    50 1   
@<TRIPOS>SUBSTRUCTURE
     1 CDA         1 TEMP              0 ****  ****    0 ROOT
