@<TRIPOS>MOLECULE
CDB
   55    57     1     0     0
SMALL
No Charge or Current Charge


@<TRIPOS>ATOM
      1 N1          -6.6920     0.1410    -2.2560 na         1 CDB      -0.048700
      2 C2          -6.3980     0.0220    -0.8830 ca         1 CDB      -0.150300
      3 C3          -7.2500     0.6020     0.0850 ca         1 CDB      -0.079000
      4 C4          -8.4040     1.2990    -0.3100 ca         1 CDB       0.024000
      5 C5          -8.7030     1.4170    -1.6760 ca         1 CDB      -0.089000
      6 C6          -7.8470     0.8400    -2.6310 ca         1 CDB       0.027700
      7 C11         -5.1280    -0.7230    -0.4470 c3         1 CDB       0.246300
      8 C12         -4.0170     0.2770    -0.0300 c3         1 CDB       0.000600
      9 F13         -4.6500    -1.5150    -1.4370 f          1 CDB      -0.065000
     10 F1          -5.3900    -1.5450     0.5960 f          1 CDB      -0.065000
     11 N18         -2.7640    -0.3920     0.4010 nu         1 CDB      -0.437700
     12 C21         -1.5860     0.2150     0.8260 cc         1 CDB       0.322800
     13 C22         -0.4660    -0.6770     1.2070 c          1 CDB       0.463700
     14 N23          0.6890     0.0220     1.6330 n          1 CDB      -0.231000
     15 C24          0.7360     1.4360     1.6450 cc         1 CDB       0.119400
     16 C25         -0.3450     2.2370     1.2810 cd         1 CDB      -0.259100
     17 N26         -1.5270     1.5920     0.8710 na         1 CDB      -0.224700
     18 O28         -0.5240    -1.9030     1.1600 o          1 CDB      -0.462000
     19 C29          2.0170     2.1190     2.0680 c3         1 CDB      -0.080900
     20 C33          1.8740    -0.8080     2.0360 c3         1 CDB      -0.029000
     21 C34          2.8690    -1.0940     0.9010 c          1 CDB       0.596100
     22 N37          3.9790    -1.8210     1.2720 ns         1 CDB      -0.479900
     23 O38          2.7060    -0.7060    -0.2480 o          1 CDB      -0.593100
     24 C39          5.0980    -2.1480     0.3680 c3         1 CDB       0.051700
     25 C40          5.9540    -0.9330    -0.0030 ca         1 CDB       0.272300
     26 C43          6.1170    -0.5190    -1.3490 ca         1 CDB       0.111000
     27 C44          6.9120     0.6090    -1.6330 ca         1 CDB      -0.068300
     28 C45          7.5150     1.2750    -0.5480 ca         1 CDB      -0.122000
     29 N46          6.5450    -0.2840     1.0360 nb         1 CDB      -0.642000
     30 F47          5.5220    -1.1970    -2.3620 f          1 CDB      -0.187000
     31 C50          7.3080     0.7990     0.7590 ca         1 CDB       0.340900
     32 C1           7.1170     1.0950    -3.0630 c3         1 CDB      -0.050800
     33 H1          -6.0930    -0.2720    -2.9660 hn         1 CDB       0.406000
     34 H3          -7.0230     0.5160     1.1470 ha         1 CDB       0.186000
     35 H4          -9.0600     1.7430     0.4360 ha         1 CDB       0.190000
     36 H5          -9.5940     1.9550    -1.9960 ha         1 CDB       0.201000
     37 H6          -8.0600     0.9200    -3.6990 h4         1 CDB       0.208000
     38 H121        -4.4030     0.9020     0.7880 h1         1 CDB       0.089200
     39 H122        -3.8120     0.9390    -0.8820 h1         1 CDB       0.089200
     40 H18         -2.7320    -1.4140     0.3960 hn         1 CDB       0.423000
     41 H25         -0.3360     3.3270     1.2880 h4         1 CDB       0.263000
     42 H26         -2.3410     2.1300     0.5990 hn         1 CDB       0.368000
     43 H291         1.9580     3.2040     1.9290 hc         1 CDB       0.093367
     44 H292         2.2280     1.9440     3.1300 hc         1 CDB       0.093367
     45 H293         2.8740     1.7710     1.4790 hc         1 CDB       0.093367
     46 H331         2.4240    -0.3240     2.8510 h1         1 CDB       0.107700
     47 H332         1.5460    -1.7770     2.4300 h1         1 CDB       0.107700
     48 H37          4.0510    -2.0910     2.2470 hn         1 CDB       0.325500
     49 H391         5.7420    -2.8910     0.8560 h1         1 CDB       0.093200
     50 H392         4.6940    -2.6160    -0.5390 h1         1 CDB       0.093200
     51 H45          8.1390     2.1500    -0.7050 ha         1 CDB       0.142000
     52 H50          7.7680     1.3010     1.6090 h4         1 CDB       0.042100
     53 H11          7.5910     0.3190    -3.6760 hc         1 CDB       0.057700
     54 H12          6.1600     1.3540    -3.5300 hc         1 CDB       0.057700
     55 H13          7.7560     1.9850    -3.1030 hc         1 CDB       0.057700
@<TRIPOS>BOND
     1     1     2 1   
     2     1     6 2   
     3     1    33 1   
     4     2     3 ar  
     5     2     7 1   
     6     3     4 ar  
     7     3    34 1   
     8     4     5 ar  
     9     4    35 1   
    10     5     6 ar  
    11     5    36 1   
    12     6    37 1   
    13     7     8 1   
    14     7     9 1   
    15     7    10 1   
    16     8    11 1   
    17     8    38 1   
    18     8    39 1   
    19    11    12 2   
    20    11    40 1   
    21    12    13 1   
    22    12    17 1   
    23    13    14 1   
    24    13    18 2   
    25    14    15 1   
    26    14    20 1   
    27    15    16 2   
    28    15    19 1   
    29    16    17 1   
    30    16    41 1   
    31    17    42 1   
    32    19    43 1   
    33    19    44 1   
    34    19    45 1   
    35    20    21 1   
    36    20    46 1   
    37    20    47 1   
    38    21    22 1   
    39    21    23 2   
    40    22    24 1   
    41    22    48 1   
    42    24    25 1   
    43    24    49 1   
    44    24    50 1   
    45    25    26 ar  
    46    25    29 ar  
    47    26    27 ar  
    48    26    30 1   
    49    27    28 ar  
    50    27    32 1   
    51    28    31 ar  
    52    28    51 1   
    53    29    31 ar  
    54    31    52 1   
    55    32    53 1   
    56    32    54 1   
    57    32    55 1   
@<TRIPOS>SUBSTRUCTURE
     1 CDB         1 TEMP              0 ****  ****    0 ROOT
