@<TRIPOS>MOLECULE
CDB
   55    57     1     0     0
SMALL
bcc


@<TRIPOS>ATOM
      1 N1          -6.9190    -0.5390    -1.5530 na         1 CDB      -0.049100
      2 C2          -6.4730    -0.1330    -0.3590 ca         1 CDB      -0.099600
      3 C3          -7.2060     0.7790     0.3610 ca         1 CDB      -0.097000
      4 C4          -8.3960     1.2580    -0.1760 ca         1 CDB       0.006000
      5 C5          -8.8260     0.8140    -1.4150 ca         1 CDB      -0.107000
      6 C6          -8.0560    -0.1020    -2.0950 ca         1 CDB       0.009700
      7 C11         -5.1580    -0.6850     0.1440 c3         1 CDB       0.488900
      8 C12         -4.0360     0.3200    -0.0280 c3         1 CDB      -0.028700
      9 F13         -4.8670    -1.8280    -0.5210 f          1 CDB      -0.186300
     10 F1          -5.3000    -1.0120     1.4460 f          1 CDB      -0.186300
     11 N18         -2.7880    -0.2160     0.4600 nu         1 CDB      -0.358100
     12 C21         -1.6740     0.4760     0.5100 cc         1 CDB       0.322800
     13 C22         -0.4750    -0.2330     1.0260 c          1 CDB       0.606200
     14 N23          0.6460     0.5220     1.1470 n          1 CDB      -0.298000
     15 C24          0.7270     1.8380     0.7050 cc         1 CDB       0.119400
     16 C25         -0.3700     2.4230     0.2070 cd         1 CDB      -0.209100
     17 N26         -1.5600     1.7260     0.1270 na         1 CDB      -0.174400
     18 O28         -0.5560    -1.4070     1.3260 o          1 CDB      -0.537500
     19 C29          2.0170     2.5740     0.8120 c3         1 CDB      -0.080900
     20 C33          1.8320    -0.1690     1.6080 c3         1 CDB      -0.029000
     21 C34          2.5400    -0.8360     0.4300 c          1 CDB       0.663100
     22 N37          3.6710    -1.4640     0.7770 ns         1 CDB      -0.546900
     23 O38          2.0870    -0.7730    -0.6970 o          1 CDB      -0.593100
     24 C39          4.5760    -2.0870    -0.1610 c3         1 CDB       0.051700
     25 C40          5.9100    -1.3870    -0.2160 ca         1 CDB       0.337600
     26 C43          6.0220    -0.0570    -0.5930 ca         1 CDB       0.010600
     27 C44          7.2400     0.6000    -0.6380 ca         1 CDB      -0.068300
     28 C45          8.3450    -0.1680    -0.2870 ca         1 CDB      -0.205300
     29 N46          6.9870    -2.0890     0.1130 nb         1 CDB      -0.642000
     30 F47          4.9120     0.6170    -0.9320 f          1 CDB      -0.151900
     31 C50          8.1720    -1.4940     0.0730 ca         1 CDB       0.406200
     32 C1           7.3430     2.0360    -1.0420 c3         1 CDB      -0.050800
     33 H1          -6.3800    -1.2200    -2.0810 hn         1 CDB       0.355700
     34 H3          -6.8620     1.1190     1.3270 ha         1 CDB       0.204000
     35 H4          -8.9820     1.9760     0.3810 ha         1 CDB       0.208000
     36 H5          -9.7460     1.1680    -1.8550 ha         1 CDB       0.219000
     37 H6          -8.3120    -0.5050    -3.0620 h4         1 CDB       0.226000
     38 H121        -4.3020     1.2280     0.5210 h1         1 CDB       0.089200
     39 H122        -3.9570     0.5830    -1.0870 h1         1 CDB       0.089200
     40 H18         -2.7090    -1.1840     0.7510 hn         1 CDB       0.372700
     41 H25         -0.3930     3.4380    -0.1500 h4         1 CDB       0.213000
     42 H26         -2.3600     2.2230    -0.2490 hn         1 CDB       0.317700
     43 H291         1.8960     3.5710     0.3950 hc         1 CDB       0.093367
     44 H292         2.3350     2.6860     1.8490 hc         1 CDB       0.093367
     45 H293         2.8190     2.0800     0.2630 hc         1 CDB       0.093367
     46 H331         2.4970     0.5340     2.1060 h1         1 CDB       0.107700
     47 H332         1.5560    -0.9140     2.3530 h1         1 CDB       0.107700
     48 H37          3.9480    -1.4610     1.7470 hn         1 CDB       0.325500
     49 H391         4.7550    -3.1220     0.1310 h1         1 CDB       0.093200
     50 H392         4.1010    -2.1020    -1.1410 h1         1 CDB       0.093200
     51 H45          9.3360     0.2670    -0.2990 ha         1 CDB       0.160000
     52 H50          9.0290    -2.1000     0.3440 h4         1 CDB       0.042100
     53 H11          6.9550     2.1950    -2.0490 hc         1 CDB       0.057700
     54 H12          6.7740     2.6780    -0.3690 hc         1 CDB       0.057700
     55 H13          8.3800     2.3640    -1.0260 hc         1 CDB       0.057700
@<TRIPOS>BOND
     1     1     2 1   
     2     1     6 2   
     3     1    33 1   
     4     2     3 ar  
     5     2     7 1   
     6     3     4 ar  
     7     3    34 1   
     8     4     5 ar  
     9     4    35 1   
    10     5     6 ar  
    11     5    36 1   
    12     6    37 1   
    13     7     8 1   
    14     7     9 1   
    15     7    10 1   
    16     8    11 1   
    17     8    38 1   
    18     8    39 1   
    19    11    12 2   
    20    11    40 1   
    21    12    13 1   
    22    12    17 1   
    23    13    14 1   
    24    13    18 2   
    25    14    15 1   
    26    14    20 1   
    27    15    16 2   
    28    15    19 1   
    29    16    17 1   
    30    16    41 1   
    31    17    42 1   
    32    19    43 1   
    33    19    44 1   
    34    19    45 1   
    35    20    21 1   
    36    20    46 1   
    37    20    47 1   
    38    21    22 1   
    39    21    23 2   
    40    22    24 1   
    41    22    48 1   
    42    24    25 1   
    43    24    49 1   
    44    24    50 1   
    45    25    26 ar  
    46    25    29 ar  
    47    26    27 ar  
    48    26    30 1   
    49    27    28 ar  
    50    27    32 1   
    51    28    31 ar  
    52    28    51 1   
    53    29    31 ar  
    54    31    52 1   
    55    32    53 1   
    56    32    54 1   
    57    32    55 1   
@<TRIPOS>SUBSTRUCTURE
     1 CDB         1 TEMP              0 ****  ****    0 ROOT
