@<TRIPOS>MOLECULE
CDC
   56    57     1     0     0
SMALL
No Charge or Current Charge


@<TRIPOS>ATOM
      1 N1           4.1780    -0.6450     0.7180 n          1 CDC      -0.312000
      2 C2           3.3390    -1.4850    -0.0510 c          1 CDC       0.711400
      3 N3           3.7010    -2.8000    -0.1970 nc         1 CDC      -0.759100
      4 C4           4.7780    -3.2450     0.3530 cd         1 CDC       0.778500
      5 C5           5.6690    -2.4640     1.1110 cd         1 CDC      -0.507600
      6 C6           5.3460    -1.1400     1.2900 cc         1 CDC       0.037600
      7 O2           2.3340    -1.0860    -0.6140 o          1 CDC      -0.496000
      8 N4           5.0350    -4.5200     0.1410 nv         1 CDC      -1.047200
      9 C1           3.8050     0.7710     0.9830 c5         1 CDC       0.341700
     10 C7           4.1220     1.6170    -0.2900 c5         1 CDC       0.074300
     11 O6           5.5260     1.9000    -0.5010 oh         1 CDC      -0.728000
     12 C3           3.3440     2.9030     0.1020 c5         1 CDC       0.104300
     13 C8           2.0410     2.3020     0.7570 c5         1 CDC       0.164300
     14 O4           2.4060     0.9750     1.2410 os         1 CDC      -0.406000
     15 O3           4.1360     3.6700     1.0170 oh         1 CDC      -0.719000
     16 C9           0.8520     2.1830    -0.2350 c3         1 CDC       0.228600
     17 O5          -0.3600     2.0120     0.5140 os         1 CDC      -0.578400
     18 PA          -1.7710     2.0310    -0.2620 p5         1 CDC       1.483800
     19 O1A         -1.7820     3.1430    -1.2600 o          1 CDC      -0.860500
     20 O2A         -2.8630     2.1460     0.7490 o          1 CDC      -0.860500
     21 O3A         -1.6350     0.6040    -0.9140 os         1 CDC      -0.677800
     22 PB          -2.9770     0.0190    -1.4960 p5         1 CDC       1.441800
     23 O1B         -3.4820    -0.7740    -0.1890 os         1 CDC      -0.569400
     24 O2B         -3.9740     1.0170    -1.9790 o          1 CDC      -0.842500
     25 O3B         -2.6300    -0.9440    -2.5840 o          1 CDC      -0.842500
     26 C14         -4.3500    -1.9030    -0.3420 c3         1 CDC       0.222600
     27 C15         -5.5540    -1.7680     0.6280 c3         1 CDC       0.089600
     28 N11         -6.5470    -0.5930     0.4780 n4         1 CDC      -0.484000
     29 C16         -7.0330    -0.4730    -0.9730 c3         1 CDC       0.077233
     30 C17         -5.8920     0.7260     0.9110 c3         1 CDC       0.077233
     31 C18         -7.7550    -0.8560     1.3870 c3         1 CDC       0.077233
     32 H5           6.5640    -2.8930     1.5440 ha         1 CDC       0.187000
     33 H6           5.9190    -0.4070     1.8530 h4         1 CDC       0.191000
     34 H41          6.0100    -4.7810     0.1960 hn         1 CDC       0.493500
     35 H42          4.5100    -4.9230    -0.6230 hn         1 CDC       0.493500
     36 H1           4.3890     1.1200     1.8440 h2         1 CDC       0.046700
     37 H2           3.6730     1.1590    -1.1840 h1         1 CDC       0.096700
     38 HO'2         5.9410     1.0890    -0.8830 ho         1 CDC       0.507000
     39 H3           3.1070     3.5060    -0.7860 h1         1 CDC       0.058700
     40 H4           1.7210     2.9210     1.6060 h1         1 CDC       0.084700
     41 H3T          5.0640     3.4540     0.7450 ho         1 CDC       0.502000
     42 H5'1         1.0210     1.3420    -0.9200 h1         1 CDC       0.030200
     43 H5'2         0.8050     3.1040    -0.8310 h1         1 CDC       0.030200
     44 H141        -3.8080    -2.8270    -0.1060 h1         1 CDC       0.038700
     45 H142        -4.7310    -1.9930    -1.3680 h1         1 CDC       0.038700
     46 H151        -5.1660    -1.7310     1.6480 hx         1 CDC       0.065700
     47 H152        -6.1420    -2.6820     0.5340 hx         1 CDC       0.065700
     48 H161        -6.1830    -0.2500    -1.6210 hx         1 CDC       0.094367
     49 H162        -7.4950    -1.4140    -1.2790 hx         1 CDC       0.094367
     50 H163        -7.7650     0.3350    -1.0420 hx         1 CDC       0.094367
     51 H171        -6.6280     1.5300     0.8580 hx         1 CDC       0.094367
     52 H172        -5.5230     0.6270     1.9340 hx         1 CDC       0.094367
     53 H173        -5.0590     0.9520     0.2450 hx         1 CDC       0.094367
     54 H181        -8.2370    -1.7880     1.0860 hx         1 CDC       0.094367
     55 H182        -7.4160    -0.9350     2.4220 hx         1 CDC       0.094367
     56 H183        -8.4630    -0.0300     1.2940 hx         1 CDC       0.094367
@<TRIPOS>BOND
     1     1     2 1   
     2     1     6 1   
     3     1     9 1   
     4     2     3 1   
     5     2     7 2   
     6     3     4 2   
     7     4     5 1   
     8     4     8 1   
     9     5     6 2   
    10     5    32 1   
    11     6    33 1   
    12     8    34 1   
    13     8    35 1   
    14     9    10 1   
    15     9    14 1   
    16     9    36 1   
    17    10    11 1   
    18    10    12 1   
    19    10    37 1   
    20    11    38 1   
    21    12    13 1   
    22    12    15 1   
    23    12    39 1   
    24    13    14 1   
    25    13    16 1   
    26    13    40 1   
    27    15    41 1   
    28    16    17 1   
    29    16    42 1   
    30    16    43 1   
    31    17    18 1   
    32    18    19 1   
    33    18    20 1   
    34    18    21 1   
    35    21    22 1   
    36    22    23 1   
    37    22    24 1   
    38    22    25 1   
    39    23    26 1   
    40    26    27 1   
    41    26    44 1   
    42    26    45 1   
    43    27    28 1   
    44    27    46 1   
    45    27    47 1   
    46    28    29 1   
    47    28    30 1   
    48    28    31 1   
    49    29    48 1   
    50    29    49 1   
    51    29    50 1   
    52    30    51 1   
    53    30    52 1   
    54    30    53 1   
    55    31    54 1   
    56    31    55 1   
    57    31    56 1   
@<TRIPOS>SUBSTRUCTURE
     1 CDC         1 TEMP              0 ****  ****    0 ROOT
