@<TRIPOS>MOLECULE
CDC
   56    57     1     0     0
SMALL
bcc


@<TRIPOS>ATOM
      1 N1           4.1780    -0.5330     0.5020 n          1 CDC      -0.379000
      2 C2           3.7320    -1.0070    -0.7490 c          1 CDC       0.853900
      3 N3           4.1340    -2.2320    -1.1440 nc         1 CDC      -0.759100
      4 C4           4.9310    -2.9700    -0.3970 cd         1 CDC       0.778500
      5 C5           5.4050    -2.5210     0.8740 cd         1 CDC      -0.457600
      6 C6           4.9900    -1.3030     1.2690 cc         1 CDC       0.087600
      7 O2           3.0080    -0.3050    -1.4390 o          1 CDC      -0.571500
      8 N4           5.2920    -4.1680    -0.8510 nv         1 CDC      -0.936800
      9 C1           3.7800     0.7700     1.0070 c5         1 CDC       0.318500
     10 C7           4.1560     1.9700     0.1380 c5         1 CDC       0.051100
     11 O6           5.4830     2.3370     0.3980 oh         1 CDC      -0.605800
     12 C3           3.1190     2.9990     0.6000 c5         1 CDC       0.081100
     13 C8           1.8980     2.1250     0.8660 c5         1 CDC       0.141100
     14 O4           2.4000     0.8290     1.2030 os         1 CDC      -0.359600
     15 O3           3.5140     3.6020     1.8080 oh         1 CDC      -0.596800
     16 C9           0.9530     2.0610    -0.3160 c3         1 CDC       0.205400
     17 O5          -0.1240     1.2150     0.0290 os         1 CDC      -0.555200
     18 PA          -1.4450     1.1630    -0.9460 p5         1 CDC       1.483800
     19 O1A         -1.0590     1.5370    -2.3410 o          1 CDC      -0.860500
     20 O2A         -2.5760     1.8510    -0.2490 o          1 CDC      -0.860500
     21 O3A         -1.6230    -0.4750    -0.8270 os         1 CDC      -0.677800
     22 PB          -2.9090    -1.3390    -1.3290 p5         1 CDC       1.441800
     23 O1B         -3.6430    -1.4640     0.1480 os         1 CDC      -0.546200
     24 O2B         -3.7860    -0.5350    -2.2400 o          1 CDC      -0.842500
     25 O3B         -2.4220    -2.6900    -1.7450 o          1 CDC      -0.842500
     26 C14         -4.8360    -2.2070     0.2130 c3         1 CDC       0.199400
     27 C15         -5.8770    -1.5340     1.0780 c3         1 CDC       0.117800
     28 N11         -6.4920    -0.2610     0.5560 n4         1 CDC      -0.596800
     29 C16         -6.9970    -0.4370    -0.8330 c3         1 CDC       0.105433
     30 C17         -5.5230     0.8750     0.5870 c3         1 CDC       0.105433
     31 C18         -7.6370     0.0700     1.4500 c3         1 CDC       0.105433
     32 H5           6.0550    -3.1200     1.4940 ha         1 CDC       0.137000
     33 H6           5.2880    -0.8860     2.2210 h4         1 CDC       0.141000
     34 H41          5.9130    -4.7650    -0.3340 hn         1 CDC       0.438300
     35 H42          4.9650    -4.4870    -1.7470 hn         1 CDC       0.438300
     36 H1           4.3040     0.8740     1.9660 h2         1 CDC       0.046700
     37 H2           3.9990     1.7500    -0.9190 h1         1 CDC       0.096700
     38 HO'2         5.8410     2.7770    -0.3790 ho         1 CDC       0.408000
     39 H3           2.9220     3.7500    -0.1760 h1         1 CDC       0.058700
     40 H4           1.3470     2.5130     1.7300 h1         1 CDC       0.084700
     41 H3T          4.4430     3.8470     1.7210 ho         1 CDC       0.403000
     42 H5'1         1.4680     1.6960    -1.2060 h1         1 CDC       0.030200
     43 H5'2         0.6150     3.0840    -0.5190 h1         1 CDC       0.030200
     44 H141        -4.6510    -3.1760     0.6880 h1         1 CDC       0.038700
     45 H142        -5.2540    -2.4310    -0.7740 h1         1 CDC       0.038700
     46 H151        -5.4700    -1.3010     2.0620 hx         1 CDC       0.065700
     47 H152        -6.6980    -2.2400     1.2110 hx         1 CDC       0.065700
     48 H161        -6.1590    -0.5630    -1.5140 hx         1 CDC       0.094367
     49 H162        -7.6520    -1.3040    -0.8700 hx         1 CDC       0.094367
     50 H163        -7.5550     0.4530    -1.1130 hx         1 CDC       0.094367
     51 H171        -6.0710     1.7900     0.3790 hx         1 CDC       0.094367
     52 H172        -5.0800     0.9350     1.5770 hx         1 CDC       0.094367
     53 H173        -4.7460     0.7360    -0.1540 hx         1 CDC       0.094367
     54 H181        -8.3760    -0.7250     1.4010 hx         1 CDC       0.094367
     55 H182        -7.2760     0.1760     2.4690 hx         1 CDC       0.094367
     56 H183        -8.0840     1.0060     1.1230 hx         1 CDC       0.094367
@<TRIPOS>BOND
     1     1     2 1   
     2     1     6 1   
     3     1     9 1   
     4     2     3 1   
     5     2     7 2   
     6     3     4 2   
     7     4     5 1   
     8     4     8 1   
     9     5     6 2   
    10     5    32 1   
    11     6    33 1   
    12     8    34 1   
    13     8    35 1   
    14     9    10 1   
    15     9    14 1   
    16     9    36 1   
    17    10    11 1   
    18    10    12 1   
    19    10    37 1   
    20    11    38 1   
    21    12    13 1   
    22    12    15 1   
    23    12    39 1   
    24    13    14 1   
    25    13    16 1   
    26    13    40 1   
    27    15    41 1   
    28    16    17 1   
    29    16    42 1   
    30    16    43 1   
    31    17    18 1   
    32    18    19 1   
    33    18    20 1   
    34    18    21 1   
    35    21    22 1   
    36    22    23 1   
    37    22    24 1   
    38    22    25 1   
    39    23    26 1   
    40    26    27 1   
    41    26    44 1   
    42    26    45 1   
    43    27    28 1   
    44    27    46 1   
    45    27    47 1   
    46    28    29 1   
    47    28    30 1   
    48    28    31 1   
    49    29    48 1   
    50    29    49 1   
    51    29    50 1   
    52    30    51 1   
    53    30    52 1   
    54    30    53 1   
    55    31    54 1   
    56    31    55 1   
    57    31    56 1   
@<TRIPOS>SUBSTRUCTURE
     1 CDC         1 TEMP              0 ****  ****    0 ROOT
