@<TRIPOS>MOLECULE
CDD
   49    51     1     0     0
SMALL
bcc


@<TRIPOS>ATOM
      1 C1           7.8410    -1.3940    -0.7980 ca         1 CDD      -0.182300
      2 N2           6.5420    -1.5250    -0.4350 na         1 CDD       0.242600
      3 C3           5.9550    -0.5410     0.3000 ca         1 CDD      -0.221600
      4 C4           6.6690     0.5900     0.6500 ca         1 CDD      -0.062000
      5 C5           7.9940     0.7330     0.2800 ca         1 CDD      -0.153000
      6 C6           8.5780    -0.2860    -0.4550 ca         1 CDD      -0.086000
      7 C11          4.5040    -0.7280     0.6780 c3         1 CDD       0.482900
      8 C12          3.5340    -0.6600    -0.4960 c3         1 CDD       0.188800
      9 F13          4.3410    -1.8910     1.3640 f          1 CDD      -0.223800
     10 F14          4.1790     0.2510     1.5670 f          1 CDD      -0.223800
     11 N15          2.1730    -0.7900    -0.0760 nu         1 CDD      -0.823200
     12 C18          1.3550     0.2560     0.1440 cc         1 CDD       0.615200
     13 C19         -0.0260    -0.1200     0.5210 c          1 CDD       0.577200
     14 N20         -0.8560     0.9390     0.7660 n          1 CDD      -0.314000
     15 C21         -0.4190     2.2350     0.5710 cc         1 CDD       0.047000
     16 C22          0.8510     2.4800     0.2050 cd         1 CDD       0.056600
     17 N23          1.7480     1.4790     0.0020 nd         1 CDD      -0.632300
     18 C24         -2.2340     0.6610     1.1060 c3         1 CDD      -0.009000
     19 C25         -3.1310     0.8350    -0.1140 c          1 CDD       0.662100
     20 N28         -4.4230     1.0120     0.1910 ns         1 CDD      -0.571900
     21 C29         -5.4900     1.0740    -0.7830 c3         1 CDD       0.155300
     22 C30         -6.4950    -0.0290    -0.5900 ca         1 CDD      -0.161300
     23 C33         -7.8080     0.2430    -0.2170 ca         1 CDD      -0.095000
     24 C34         -8.7320    -0.7770    -0.0300 ca         1 CDD      -0.148000
     25 C35         -8.3480    -2.0970    -0.2140 ca         1 CDD      -0.094000
     26 C2          -7.0440    -2.3990    -0.5850 ca         1 CDD      -0.172000
     27 C37         -6.1510    -1.3620    -0.7650 ca         1 CDD       0.154900
     28 O42         -0.3780    -1.2860     0.6190 o          1 CDD      -0.620500
     29 CL43        -1.5450     3.5060     0.8180 cl         1 CDD      -0.077400
     30 O44         -2.6770     0.7850    -1.2420 o          1 CDD      -0.573100
     31 F1          -4.8910    -1.6550    -1.1290 f          1 CDD      -0.131900
     32 O1           5.8940    -2.5600    -0.7830 o          1 CDD      -0.318000
     33 H1           8.2380    -2.2180    -1.3710 h4         1 CDD       0.190000
     34 H4           6.1810     1.3660     1.2200 ha         1 CDD       0.171000
     35 H5           8.5520     1.6150     0.5580 ha         1 CDD       0.154000
     36 H6           9.6100    -0.2360    -0.7720 ha         1 CDD       0.156000
     37 H121         3.6730     0.2920    -1.0080 h1         1 CDD       0.094700
     38 H122         3.7720    -1.4550    -1.2000 h1         1 CDD       0.094700
     39 H15          1.7860    -1.7130     0.0380 hn         1 CDD       0.477800
     40 H22          1.1950     3.4940     0.0590 h4         1 CDD       0.179000
     41 H241        -2.3010    -0.3730     1.4390 h1         1 CDD       0.091200
     42 H242        -2.5490     1.2820     1.9440 h1         1 CDD       0.091200
     43 H28         -4.6860     1.0840     1.1620 hn         1 CDD       0.313500
     44 H291        -6.0000     2.0360    -0.7030 h1         1 CDD       0.069200
     45 H292        -5.0460     1.0330    -1.7760 h1         1 CDD       0.069200
     46 H33         -8.1050     1.2740    -0.0680 ha         1 CDD       0.132000
     47 H34         -9.7470    -0.5390     0.2590 ha         1 CDD       0.138000
     48 H35         -9.0590    -2.9000    -0.0690 ha         1 CDD       0.137000
     49 H2          -6.7260    -3.4220    -0.7360 ha         1 CDD       0.154000
@<TRIPOS>BOND
     1     1     2 1   
     2     1     6 ar  
     3     1    33 1   
     4     2     3 2   
     5     2    32 1   
     6     3     4 ar  
     7     3     7 1   
     8     4     5 ar  
     9     4    34 1   
    10     5     6 ar  
    11     5    35 1   
    12     6    36 1   
    13     7     8 1   
    14     7     9 1   
    15     7    10 1   
    16     8    11 1   
    17     8    37 1   
    18     8    38 1   
    19    11    12 1   
    20    11    39 1   
    21    12    13 1   
    22    12    17 2   
    23    13    14 1   
    24    13    28 2   
    25    14    15 1   
    26    14    18 1   
    27    15    16 2   
    28    15    29 1   
    29    16    17 1   
    30    16    40 1   
    31    18    19 1   
    32    18    41 1   
    33    18    42 1   
    34    19    20 1   
    35    19    30 2   
    36    20    21 1   
    37    20    43 1   
    38    21    22 1   
    39    21    44 1   
    40    21    45 1   
    41    22    23 ar  
    42    22    27 ar  
    43    23    24 ar  
    44    23    46 1   
    45    24    25 ar  
    46    24    47 1   
    47    25    26 ar  
    48    25    48 1   
    49    26    27 ar  
    50    26    49 1   
    51    27    31 1   
@<TRIPOS>SUBSTRUCTURE
     1 CDD         1 TEMP              0 ****  ****    0 ROOT
