@<TRIPOS>MOLECULE
CDD
   49    51     1     0     0
SMALL
No Charge or Current Charge


@<TRIPOS>ATOM
      1 C1           8.4700    -0.9080    -0.6090 ca         1 CDD      -0.215000
      2 N2           7.1110    -1.1950    -0.5430 na         1 CDD       0.483300
      3 C3           6.2870    -0.4780     0.3450 ca         1 CDD      -0.221600
      4 C4           6.8500     0.5730     1.1110 ca         1 CDD      -0.044000
      5 C5           8.2190     0.8730     1.0110 ca         1 CDD      -0.135000
      6 C6           9.0390     0.1250     0.1530 ca         1 CDD      -0.068000
      7 C11          4.7920    -0.8290     0.4700 c3         1 CDD       0.240300
      8 C12          3.9810    -0.3420    -0.7730 c3         1 CDD       0.188800
      9 F13          4.6130    -2.1640     0.6220 f          1 CDD      -0.102500
     10 F14          4.2510    -0.2710     1.5820 f          1 CDD      -0.102500
     11 N15          2.5140    -0.6000    -0.6730 nu         1 CDD      -0.878400
     12 C18          1.5300     0.2610    -0.2150 cc         1 CDD       0.615200
     13 C19          0.1450    -0.3250    -0.0200 c          1 CDD       0.434700
     14 N20         -0.7950     0.6070     0.4530 n          1 CDD      -0.247000
     15 C21         -0.3870     1.9280     0.6630 cc         1 CDD       0.122600
     16 C22          0.9090     2.3890     0.4560 cd         1 CDD       0.006600
     17 N23          1.9170     1.5200    -0.0000 nd         1 CDD      -0.632300
     18 C24         -2.2040     0.1530     0.6880 c3         1 CDD      -0.009000
     19 C25         -3.1770     0.4490    -0.4660 c          1 CDD       0.595100
     20 N28         -4.4820     0.0850    -0.2260 ns         1 CDD      -0.504900
     21 C29         -5.5740     0.2710    -1.1780 c3         1 CDD       0.155300
     22 C30         -6.8850    -0.2470    -0.6080 ca         1 CDD      -0.161300
     23 C33         -7.6790     0.5930     0.1990 ca         1 CDD      -0.077000
     24 C34         -8.8920     0.1240     0.7330 ca         1 CDD      -0.130000
     25 C35         -9.3230    -1.1870     0.4660 ca         1 CDD      -0.076000
     26 C2          -8.5350    -2.0300    -0.3360 ca         1 CDD      -0.154000
     27 C37         -7.3240    -1.5630    -0.8700 ca         1 CDD       0.190000
     28 O42         -0.1510    -1.5010    -0.2460 o          1 CDD      -0.545000
     29 Cl43        -1.6050     3.0510     1.2090 cl         1 CDD      -0.153000
     30 O44         -2.8360     0.9620    -1.5240 o          1 CDD      -0.573100
     31 F1          -6.5790    -2.3920    -1.6350 f          1 CDD      -0.167000
     32 O1           6.6340    -2.0040    -1.3490 o          1 CDD      -0.508000
     33 H1           9.0660    -1.5120    -1.2910 h4         1 CDD       0.172000
     34 H4           6.2360     1.1620     1.7910 ha         1 CDD       0.153000
     35 H5           8.6450     1.6790     1.6050 ha         1 CDD       0.136000
     36 H6          10.1030     0.3450     0.0780 ha         1 CDD       0.138000
     37 H121         4.1840     0.7280    -0.9140 h1         1 CDD       0.094700
     38 H122         4.3780    -0.8440    -1.6650 h1         1 CDD       0.094700
     39 H15          2.1780    -1.5580    -0.7950 hn         1 CDD       0.533000
     40 H22          1.1790     3.4270     0.6360 h4         1 CDD       0.229000
     41 H241        -2.2330    -0.9280     0.8660 h1         1 CDD       0.091200
     42 H242        -2.6040     0.6200     1.5950 h1         1 CDD       0.091200
     43 H28         -4.6930    -0.3360     0.6710 hn         1 CDD       0.313500
     44 H291        -5.6680     1.3410    -1.4080 h1         1 CDD       0.069200
     45 H292        -5.3300    -0.2500    -2.1140 h1         1 CDD       0.069200
     46 H33         -7.3550     1.6100     0.4140 ha         1 CDD       0.114000
     47 H34         -9.4990     0.7780     1.3550 ha         1 CDD       0.120000
     48 H35        -10.2620    -1.5470     0.8810 ha         1 CDD       0.119000
     49 H2          -8.8610    -3.0460    -0.5450 ha         1 CDD       0.136000
@<TRIPOS>BOND
     1     1     2 1   
     2     1     6 ar  
     3     1    33 1   
     4     2     3 2   
     5     2    32 1   
     6     3     4 ar  
     7     3     7 1   
     8     4     5 ar  
     9     4    34 1   
    10     5     6 ar  
    11     5    35 1   
    12     6    36 1   
    13     7     8 1   
    14     7     9 1   
    15     7    10 1   
    16     8    11 1   
    17     8    37 1   
    18     8    38 1   
    19    11    12 1   
    20    11    39 1   
    21    12    13 1   
    22    12    17 2   
    23    13    14 1   
    24    13    28 2   
    25    14    15 1   
    26    14    18 1   
    27    15    16 2   
    28    15    29 1   
    29    16    17 1   
    30    16    40 1   
    31    18    19 1   
    32    18    41 1   
    33    18    42 1   
    34    19    20 1   
    35    19    30 2   
    36    20    21 1   
    37    20    43 1   
    38    21    22 1   
    39    21    44 1   
    40    21    45 1   
    41    22    23 ar  
    42    22    27 ar  
    43    23    24 ar  
    44    23    46 1   
    45    24    25 ar  
    46    24    47 1   
    47    25    26 ar  
    48    25    48 1   
    49    26    27 ar  
    50    26    49 1   
    51    27    31 1   
@<TRIPOS>SUBSTRUCTURE
     1 CDD         1 TEMP              0 ****  ****    0 ROOT
