@<TRIPOS>MOLECULE
CDE
   19    18     1     0     0
SMALL
bcc


@<TRIPOS>ATOM
      1 N           -1.2590    -0.7860    -0.8460 n8         1 CDE      -0.890800
      2 CA          -0.3860     0.3680    -0.6680 c3         1 CDE       0.166500
      3 CB           0.3850     0.4210     0.6700 c3         1 CDE      -0.100700
      4 CG1         -0.5720     0.5110     1.8550 c3         1 CDE      -0.088600
      5 CG2          1.3510    -0.7450     0.8540 c3         1 CDE      -0.088600
      6 C            0.5470     0.4670    -1.8690 c3         1 CDE      -0.084100
      7 H           -1.9220    -0.8510    -0.0840 hn         1 CDE       0.338300
      8 H2          -0.7160    -1.6410    -0.8190 hn         1 CDE       0.338300
      9 HA          -1.0350     1.2520    -0.6850 h1         1 CDE       0.054700
     10 HB           0.9740     1.3460     0.6510 hc         1 CDE       0.051700
     11 HG11        -0.0270     0.6460     2.7910 hc         1 CDE       0.032200
     12 HG12        -1.2630     1.3500     1.7500 hc         1 CDE       0.032200
     13 HG13        -1.1680    -0.3990     1.9620 hc         1 CDE       0.032200
     14 HG21         0.8250    -1.7030     0.8700 hc         1 CDE       0.032200
     15 HG22         2.1040    -0.7910     0.0660 hc         1 CDE       0.032200
     16 HG23         1.8820    -0.6600     1.8030 hc         1 CDE       0.032200
     17 HC1         -0.0220     0.5730    -2.7930 hc         1 CDE       0.036700
     18 HC2          1.2130     1.3260    -1.7810 hc         1 CDE       0.036700
     19 HC3          1.1700    -0.4250    -1.9680 hc         1 CDE       0.036700
@<TRIPOS>BOND
     1     1     2 1   
     2     1     7 1   
     3     1     8 1   
     4     2     3 1   
     5     2     6 1   
     6     2     9 1   
     7     3     4 1   
     8     3     5 1   
     9     3    10 1   
    10     4    11 1   
    11     4    12 1   
    12     4    13 1   
    13     5    14 1   
    14     5    15 1   
    15     5    16 1   
    16     6    17 1   
    17     6    18 1   
    18     6    19 1   
@<TRIPOS>SUBSTRUCTURE
     1 CDE         1 TEMP              0 ****  ****    0 ROOT
