@<TRIPOS>MOLECULE
CDE
   19    18     1     0     0
SMALL
No Charge or Current Charge


@<TRIPOS>ATOM
      1 N           -1.2440    -0.8030    -0.8250 n8         1 CDE      -0.890800
      2 CA          -0.3830     0.3850    -0.6970 c3         1 CDE       0.166500
      3 CB           0.3700     0.3990     0.6690 c3         1 CDE      -0.100700
      4 CG1         -0.6020     0.5180     1.8710 c3         1 CDE      -0.088600
      5 CG2          1.3480    -0.7890     0.8690 c3         1 CDE      -0.088600
      6 C            0.5480     0.4920    -1.9250 c3         1 CDE      -0.084100
      7 H           -1.8470    -0.8570     0.0000 hn         1 CDE       0.338300
      8 H2          -0.6550    -1.6380    -0.7570 hn         1 CDE       0.338300
      9 HA          -1.0410     1.2660    -0.7170 h1         1 CDE       0.054700
     10 HB           0.9800     1.3120     0.6790 hc         1 CDE       0.051700
     11 HG11        -0.0440     0.6600     2.8040 hc         1 CDE       0.032200
     12 HG12        -1.2700     1.3790     1.7460 hc         1 CDE       0.032200
     13 HG13        -1.2170    -0.3830     1.9780 hc         1 CDE       0.032200
     14 HG21         0.8180    -1.7480     0.8630 hc         1 CDE       0.032200
     15 HG22         2.1130    -0.8110     0.0840 hc         1 CDE       0.032200
     16 HG23         1.8690    -0.6980     1.8300 hc         1 CDE       0.032200
     17 HC1         -0.0410     0.6030    -2.8430 hc         1 CDE       0.036700
     18 HC2          1.2010     1.3680    -1.8370 hc         1 CDE       0.036700
     19 HC3          1.1780    -0.3990    -2.0330 hc         1 CDE       0.036700
@<TRIPOS>BOND
     1     1     2 1   
     2     1     7 1   
     3     1     8 1   
     4     2     3 1   
     5     2     6 1   
     6     2     9 1   
     7     3     4 1   
     8     3     5 1   
     9     3    10 1   
    10     4    11 1   
    11     4    12 1   
    12     4    13 1   
    13     5    14 1   
    14     5    15 1   
    15     5    16 1   
    16     6    17 1   
    17     6    18 1   
    18     6    19 1   
@<TRIPOS>SUBSTRUCTURE
     1 CDE         1 TEMP              0 ****  ****    0 ROOT
