@<TRIPOS>MOLECULE
CDG
   33    34     1     0     0
SMALL
No Charge or Current Charge


@<TRIPOS>ATOM
      1 C1           0.4070    -0.2950     2.4070 c6         1 CDG       0.364300
      2 C2          -1.0030     0.2710     2.0520 c6         1 CDG       0.104300
      3 C3          -1.6050    -0.5990     0.9150 c6         1 CDG       0.192300
      4 C4          -0.6470    -0.6230    -0.3220 c6         1 CDG       0.160300
      5 C5           0.7890    -1.0400     0.1320 c6         1 CDG       0.098300
      6 C6           1.7470    -0.9210    -1.0820 c6         1 CDG       0.180600
      7 C7           0.2700     0.6880    -2.1800 c6         1 CDG       0.229000
      8 C8          -0.2360    -0.1880    -3.4330 c          1 CDG       0.687000
      9 C9           0.3130     2.1690    -2.6390 c3         1 CDG      -0.055100
     10 O1           0.9970     0.4710     3.4720 os         1 CDG      -0.454000
     11 O2          -1.8970     0.3100     3.1980 oh         1 CDG      -0.740000
     12 O3          -2.9210    -0.1120     0.5990 oh         1 CDG      -0.674000
     13 O4          -0.6000     0.6590    -1.0100 os         1 CDG      -0.443000
     14 O5           1.2500    -0.2250     1.2430 os         1 CDG      -0.465000
     15 O6           1.6170     0.3760    -1.7160 os         1 CDG      -0.451000
     16 O8A         -1.4040    -0.5640    -3.4330 o          1 CDG      -0.706500
     17 O8B          0.6060    -0.8120    -4.0710 o          1 CDG      -0.706500
     18 C10          2.2430    -0.0220     3.9910 c3         1 CDG       0.157900
     19 H1           0.3120    -1.3430     2.7290 h2         1 CDG       0.011700
     20 H2          -0.8520     1.2890     1.6600 h1         1 CDG       0.088700
     21 H3          -1.6880    -1.6300     1.2900 h1         1 CDG       0.017700
     22 H4          -1.0260    -1.3830    -1.0200 h1         1 CDG       0.085700
     23 H5           0.7720    -2.0890     0.4640 h1         1 CDG       0.022700
     24 H6C1         2.7870    -1.0570    -0.7520 h1         1 CDG       0.052700
     25 H6C2         1.5240    -1.7120    -1.8110 h1         1 CDG       0.052700
     26 H9C1         0.9950     2.2980    -3.4870 hc         1 CDG       0.036033
     27 H9C2        -0.6790     2.5110    -2.9580 hc         1 CDG       0.036033
     28 H9C3         0.6520     2.8290    -1.8310 hc         1 CDG       0.036033
     29 HA          -1.3600     0.6630     3.9490 ho         1 CDG       0.509000
     30 HB          -3.2610     0.2110     1.4680 ho         1 CDG       0.493000
     31 H101         2.5900     0.6130     4.8160 h1         1 CDG       0.027700
     32 H102         2.1280    -1.0450     4.3720 h1         1 CDG       0.027700
     33 H103         3.0190    -0.0250     3.2140 h1         1 CDG       0.027700
@<TRIPOS>BOND
     1     1     2 1   
     2     1    10 1   
     3     1    14 1   
     4     1    19 1   
     5     2     3 1   
     6     2    11 1   
     7     2    20 1   
     8     3     4 1   
     9     3    12 1   
    10     3    21 1   
    11     4     5 1   
    12     4    13 1   
    13     4    22 1   
    14     5     6 1   
    15     5    14 1   
    16     5    23 1   
    17     6    15 1   
    18     6    24 1   
    19     6    25 1   
    20     7     8 1   
    21     7     9 1   
    22     7    13 1   
    23     7    15 1   
    24     8    16 1   
    25     8    17 1   
    26     9    26 1   
    27     9    27 1   
    28     9    28 1   
    29    10    18 1   
    30    11    29 1   
    31    12    30 1   
    32    18    31 1   
    33    18    32 1   
    34    18    33 1   
@<TRIPOS>SUBSTRUCTURE
     1 CDG         1 TEMP              0 ****  ****    0 ROOT
