@<TRIPOS>MOLECULE
CDG
   33    34     1     0     0
SMALL
bcc


@<TRIPOS>ATOM
      1 C1           0.4690    -0.2510     2.3080 c6         1 CDG       0.317900
      2 C2          -0.9230     0.2950     2.0020 c6         1 CDG       0.081100
      3 C3          -1.5550    -0.5610     0.9110 c6         1 CDG       0.169100
      4 C4          -0.6440    -0.6520    -0.3000 c6         1 CDG       0.137100
      5 C5           0.7560    -1.0900     0.1270 c6         1 CDG       0.075100
      6 C6           1.6800    -0.9690    -1.0680 c6         1 CDG       0.157400
      7 C7           0.2850     0.6610    -2.0280 c6         1 CDG       0.182600
      8 C8          -0.2240    -0.2150    -3.2230 c          1 CDG       0.897600
      9 C9           0.3300     2.1100    -2.4760 c3         1 CDG      -0.055100
     10 O1           1.0620     0.5670     3.2450 os         1 CDG      -0.407600
     11 O2          -1.7600     0.2200     3.1310 oh         1 CDG      -0.617800
     12 O3          -2.8090    -0.0760     0.5100 oh         1 CDG      -0.551800
     13 O4          -0.5800     0.6080    -0.9210 os         1 CDG      -0.396600
     14 O5           1.2600    -0.2550     1.1500 os         1 CDG      -0.418600
     15 O6           1.5900     0.3140    -1.6400 os         1 CDG      -0.404600
     16 O8A         -1.4530    -0.3780    -3.3020 o          1 CDG      -0.811800
     17 O8B          0.6470    -0.6040    -4.0210 o          1 CDG      -0.811800
     18 C10          2.2170     0.0290     3.8590 c3         1 CDG       0.134700
     19 H1           0.3750    -1.2860     2.6950 h2         1 CDG       0.011700
     20 H2          -0.8230     1.3290     1.6420 h1         1 CDG       0.088700
     21 H3          -1.6440    -1.5870     1.3070 h1         1 CDG       0.017700
     22 H4          -1.0500    -1.4090    -0.9850 h1         1 CDG       0.085700
     23 H5           0.7270    -2.1380     0.4600 h1         1 CDG       0.022700
     24 H6C1         2.7180    -1.1190    -0.7660 h1         1 CDG       0.052700
     25 H6C2         1.4320    -1.7550    -1.7910 h1         1 CDG       0.052700
     26 H9C1         1.0090     2.2250    -3.3200 hc         1 CDG       0.036033
     27 H9C2        -0.6600     2.4410    -2.7910 hc         1 CDG       0.036033
     28 H9C3         0.6700     2.7580    -1.6660 hc         1 CDG       0.036033
     29 HA          -1.4520     0.8550     3.7850 ho         1 CDG       0.410000
     30 HB          -3.3900    -0.0840     1.2780 ho         1 CDG       0.394000
     31 H101         2.4850     0.6890     4.6820 h1         1 CDG       0.027700
     32 H102         2.0280    -0.9710     4.2630 h1         1 CDG       0.027700
     33 H103         3.0640    -0.0300     3.1710 h1         1 CDG       0.027700
@<TRIPOS>BOND
     1     1     2 1   
     2     1    10 1   
     3     1    14 1   
     4     1    19 1   
     5     2     3 1   
     6     2    11 1   
     7     2    20 1   
     8     3     4 1   
     9     3    12 1   
    10     3    21 1   
    11     4     5 1   
    12     4    13 1   
    13     4    22 1   
    14     5     6 1   
    15     5    14 1   
    16     5    23 1   
    17     6    15 1   
    18     6    24 1   
    19     6    25 1   
    20     7     8 1   
    21     7     9 1   
    22     7    13 1   
    23     7    15 1   
    24     8    16 1   
    25     8    17 1   
    26     9    26 1   
    27     9    27 1   
    28     9    28 1   
    29    10    18 1   
    30    11    29 1   
    31    12    30 1   
    32    18    31 1   
    33    18    32 1   
    34    18    33 1   
@<TRIPOS>SUBSTRUCTURE
     1 CDG         1 TEMP              0 ****  ****    0 ROOT
