@<TRIPOS>MOLECULE
CDH
   45    44     1     0     0
SMALL
No Charge or Current Charge


@<TRIPOS>ATOM
      1 O43          3.4910    -5.1210    -0.6680 o          1 CDH      -0.719000
      2 C31          3.9540    -4.0660    -0.2550 c          1 CDH       0.721000
      3 O42          4.1750    -3.8510     0.9310 o          1 CDH      -0.719000
      4 C30          4.3090    -2.9560    -1.3000 c3         1 CDH      -0.019100
      5 C32          3.1050    -2.1240    -1.7410 c2         1 CDH      -0.071400
      6 C37          2.7500    -1.9890    -3.0280 c2         1 CDH      -0.345000
      7 C33          2.3520    -1.4410    -0.6110 c3         1 CDH      -0.050900
      8 N29          5.3840    -2.0680    -0.7960 ns         1 CDH      -0.466900
      9 C13          6.2730    -1.3650    -1.5830 c          1 CDH       0.575100
     10 O18          6.2830    -1.4710    -2.8050 o          1 CDH      -0.640100
     11 C12          7.2560    -0.4440    -0.8060 c3         1 CDH       0.031700
     12 C16          6.5020     0.7180    -0.1060 c3         1 CDH       0.072600
     13 S            5.7790     1.9830    -1.2640 sh         1 CDH      -0.485800
     14 N30          8.3160     0.0580    -1.7130 ns         1 CDH      -0.498900
     15 C25          9.4860     0.6570    -1.3110 c          1 CDH       0.600100
     16 O25          9.7720     0.8060    -0.1310 o          1 CDH      -0.618100
     17 C24         10.3880     1.1490    -2.4490 c3         1 CDH      -0.154400
     18 C23         11.6390     0.2530    -2.6130 c3         1 CDH      -0.063400
     19 C22         12.5710     0.7270    -3.7580 c3         1 CDH      -0.087400
     20 C21         13.8490    -0.1290    -3.9780 c3         1 CDH       0.021500
     21 N31         13.4770    -1.5060    -4.4680 n8         1 CDH      -1.000200
     22 C20         14.8410    -0.0390    -2.7380 c          1 CDH       0.721000
     23 O20         14.7580    -0.8810    -1.8520 o          1 CDH      -0.735500
     24 O21         15.7310     0.8020    -2.7720 o          1 CDH      -0.735500
     25 H30          4.7060    -3.4900    -2.1730 h1         1 CDH       0.063700
     26 H371         3.3090    -2.4760    -3.8280 ha         1 CDH       0.147500
     27 H372         1.8940    -1.3850    -3.3280 ha         1 CDH       0.147500
     28 H331         1.9180    -2.1720     0.0810 hc         1 CDH       0.031367
     29 H332         1.5270    -0.8260    -0.9910 hc         1 CDH       0.031367
     30 H333         3.0090    -0.7790    -0.0340 hc         1 CDH       0.031367
     31 H29          5.4720    -1.9710     0.2100 hn         1 CDH       0.344500
     32 H121         7.7260    -1.0670    -0.0340 h1         1 CDH       0.083700
     33 H161         5.6940     0.3150     0.5190 h1         1 CDH       0.080200
     34 H162         7.1980     1.2380     0.5650 h1         1 CDH       0.080200
     35 HS           4.9910     1.1230    -1.9580 hs         1 CDH       0.229800
     36 H30N         8.1620    -0.0240    -2.7120 hn         1 CDH       0.339500
     37 H241        10.7200     2.1680    -2.2170 hc         1 CDH       0.048700
     38 H242         9.8330     1.1470    -3.3940 hc         1 CDH       0.048700
     39 H231        11.3160    -0.7780    -2.8020 hc         1 CDH       0.061700
     40 H232        12.1960     0.2450    -1.6680 hc         1 CDH       0.061700
     41 H221        11.9970     0.7580    -4.6930 hc         1 CDH       0.018700
     42 H222        12.8790     1.7600    -3.5550 hc         1 CDH       0.018700
     43 H211        14.3830     0.3440    -4.8130 h1         1 CDH       0.038700
     44 H311        13.1000    -2.0410    -3.6770 hn         1 CDH       0.380000
     45 H312        12.6870    -1.4310    -5.1190 hn         1 CDH       0.380000
@<TRIPOS>BOND
     1     1     2 1   
     2     2     3 1   
     3     2     4 1   
     4     4     5 1   
     5     4     8 1   
     6     4    25 1   
     7     5     6 2   
     8     5     7 1   
     9     6    26 1   
    10     6    27 1   
    11     7    28 1   
    12     7    29 1   
    13     7    30 1   
    14     8     9 1   
    15     8    31 1   
    16     9    10 2   
    17     9    11 1   
    18    11    12 1   
    19    11    14 1   
    20    11    32 1   
    21    12    13 1   
    22    12    33 1   
    23    12    34 1   
    24    13    35 1   
    25    14    15 1   
    26    14    36 1   
    27    15    16 2   
    28    15    17 1   
    29    17    18 1   
    30    17    37 1   
    31    17    38 1   
    32    18    19 1   
    33    18    39 1   
    34    18    40 1   
    35    19    20 1   
    36    19    41 1   
    37    19    42 1   
    38    20    21 1   
    39    20    22 1   
    40    20    43 1   
    41    21    44 1   
    42    21    45 1   
    43    22    23 1   
    44    22    24 1   
@<TRIPOS>SUBSTRUCTURE
     1 CDH         1 TEMP              0 ****  ****    0 ROOT
