@<TRIPOS>MOLECULE
CDH
   45    44     1     0     0
SMALL
abcg2


@<TRIPOS>ATOM
      1 O43          2.2840    -4.3170    -0.8050 o          1 CDH      -0.719000
      2 C31          3.3480    -3.7680    -0.4800 c          1 CDH       0.721000
      3 O42          4.0320    -3.9670     0.5410 o          1 CDH      -0.719000
      4 C30          3.8620    -2.6890    -1.4740 c3         1 CDH      -0.019100
      5 C32          2.8580    -1.5650    -1.5840 c2         1 CDH      -0.071400
      6 C37          2.3330    -1.2250    -2.7570 c2         1 CDH      -0.345000
      7 C33          2.5030    -0.8610    -0.3080 c3         1 CDH      -0.050900
      8 N29          5.1430    -2.1940    -1.0260 ns         1 CDH      -0.466900
      9 C13          6.0110    -1.5510    -1.8080 c          1 CDH       0.575100
     10 O18          5.8450    -1.3520    -3.0030 o          1 CDH      -0.640100
     11 C12          7.2360    -1.0070    -1.0720 c3         1 CDH       0.031700
     12 C16          6.8160     0.1150    -0.1140 c3         1 CDH       0.072600
     13 S            6.0340     1.5340    -0.9330 sh         1 CDH      -0.485800
     14 N30          8.2000    -0.5790    -2.0430 ns         1 CDH      -0.498900
     15 C25          9.5120    -0.4430    -1.7740 c          1 CDH       0.600100
     16 O25          9.9790    -0.6530    -0.6630 o          1 CDH      -0.618100
     17 C24         10.3520    -0.0160    -2.9610 c3         1 CDH      -0.154400
     18 C23         11.8470     0.0040    -2.6870 c3         1 CDH      -0.063400
     19 C22         12.6330     0.3690    -3.9410 c3         1 CDH      -0.087400
     20 C21         14.1610     0.3390    -3.7680 c3         1 CDH       0.021500
     21 N31         14.6990    -0.9640    -3.4100 n8         1 CDH      -1.000200
     22 C20         14.5800     1.4160    -2.7440 c          1 CDH       0.721000
     23 O20         14.9510     1.0300    -1.6170 o          1 CDH      -0.735500
     24 O21         14.4750     2.6000    -3.1240 o          1 CDH      -0.735500
     25 H30          3.9780    -3.1590    -2.4550 h1         1 CDH       0.063700
     26 H371         2.6050    -1.7400    -3.6700 ha         1 CDH       0.147500
     27 H372         1.6080    -0.4250    -2.8460 ha         1 CDH       0.147500
     28 H331         2.0000    -1.5350     0.3890 hc         1 CDH       0.031367
     29 H332         1.8400    -0.0160    -0.4890 hc         1 CDH       0.031367
     30 H333         3.3900    -0.4850     0.2080 hc         1 CDH       0.031367
     31 H29          5.3870    -2.4470    -0.0770 hn         1 CDH       0.344500
     32 H121         7.6690    -1.8050    -0.4610 h1         1 CDH       0.083700
     33 H161         6.1600    -0.2710     0.6670 h1         1 CDH       0.080200
     34 H162         7.7010     0.5120     0.3810 h1         1 CDH       0.080200
     35 HS           4.8490     0.9700    -1.1970 hs         1 CDH       0.229800
     36 H30N         7.8560    -0.3890    -2.9720 hn         1 CDH       0.339500
     37 H241        10.0150     0.9750    -3.2820 hc         1 CDH       0.048700
     38 H242        10.1310    -0.6860    -3.7980 hc         1 CDH       0.048700
     39 H231        12.1650    -0.9780    -2.3280 hc         1 CDH       0.061700
     40 H232        12.0630     0.7140    -1.8860 hc         1 CDH       0.061700
     41 H221        12.3600    -0.3230    -4.7460 hc         1 CDH       0.018700
     42 H222        12.3390     1.3650    -4.2870 hc         1 CDH       0.018700
     43 H211        14.5880     0.6290    -4.7370 h1         1 CDH       0.038700
     44 H311        14.5750    -1.1040    -2.4160 hn         1 CDH       0.380000
     45 H312        14.1830    -1.6980    -3.8800 hn         1 CDH       0.380000
@<TRIPOS>BOND
     1     1     2 1   
     2     2     3 1   
     3     2     4 1   
     4     4     5 1   
     5     4     8 1   
     6     4    25 1   
     7     5     6 2   
     8     5     7 1   
     9     6    26 1   
    10     6    27 1   
    11     7    28 1   
    12     7    29 1   
    13     7    30 1   
    14     8     9 1   
    15     8    31 1   
    16     9    10 2   
    17     9    11 1   
    18    11    12 1   
    19    11    14 1   
    20    11    32 1   
    21    12    13 1   
    22    12    33 1   
    23    12    34 1   
    24    13    35 1   
    25    14    15 1   
    26    14    36 1   
    27    15    16 2   
    28    15    17 1   
    29    17    18 1   
    30    17    37 1   
    31    17    38 1   
    32    18    19 1   
    33    18    39 1   
    34    18    40 1   
    35    19    20 1   
    36    19    41 1   
    37    19    42 1   
    38    20    21 1   
    39    20    22 1   
    40    20    43 1   
    41    21    44 1   
    42    21    45 1   
    43    22    23 1   
    44    22    24 1   
@<TRIPOS>SUBSTRUCTURE
     1 CDH         1 TEMP              0 ****  ****    0 ROOT
