@<TRIPOS>MOLECULE
CDI
   28    28     1     0     0
SMALL
bcc


@<TRIPOS>ATOM
      1 C4          -0.3210    -0.5190    -3.0310 c3         1 CDI       0.152400
      2 C3          -0.3290     0.1760    -1.6650 c3         1 CDI       0.269800
      3 OB4          0.8490    -0.3690    -1.0220 os         1 CDI      -0.614200
      4 PB           1.6600     0.0150     0.2670 p5         1 CDI       1.683500
      5 OB2          2.8700    -0.9880     0.0760 oh         1 CDI      -0.716400
      6 OB3          1.9660     1.4240     0.5600 o          1 CDI      -0.811300
      7 PA          -0.3670    -0.0240     2.3110 p5         1 CDI       1.654500
      8 OA3         -1.0310     0.9560     1.2480 os         1 CDI      -0.600200
      9 OA1         -1.3040    -1.2970     2.4550 oh         1 CDI      -0.753400
     10 OA2          0.0420     0.6770     3.5350 o          1 CDI      -0.769300
     11 C1          -2.0260     0.6180     0.2780 c3         1 CDI       0.168400
     12 C2          -1.5740    -0.2920    -0.8670 c3         1 CDI       0.073100
     13 O1          -2.6660    -0.3280    -1.7570 oh         1 CDI      -0.587800
     14 C5          -0.2390     1.6830    -1.8310 c3         1 CDI      -0.138100
     15 O2           0.9170    -0.2810    -3.6510 oh         1 CDI      -0.581800
     16 OB1          0.8350    -0.7120     1.4790 os         1 CDI      -0.681800
     17 HC41        -0.5000    -1.5940    -2.8890 h1         1 CDI       0.037200
     18 HC42        -1.1490    -0.1260    -3.6250 h1         1 CDI       0.037200
     19 HB2O         3.6350    -0.7920     0.6360 ho         1 CDI       0.478000
     20 HA1O        -1.9000    -1.2710     3.2170 ho         1 CDI       0.480000
     21 HC11        -2.8820     0.1540     0.7740 h1         1 CDI       0.063700
     22 HC12        -2.3560     1.5710    -0.1330 h1         1 CDI       0.063700
     23 HC2         -1.3550    -1.3000    -0.4920 h1         1 CDI       0.063700
     24 HO1         -3.2990    -0.9820    -1.4430 ho         1 CDI       0.418000
     25 HC51         0.6140     1.9520    -2.4520 hc         1 CDI       0.069700
     26 HC52        -1.1410     2.0390    -2.3320 hc         1 CDI       0.069700
     27 HC53        -0.1510     2.2160    -0.8870 hc         1 CDI       0.069700
     28 HO2          0.8060    -0.4240    -4.5950 ho         1 CDI       0.404000
@<TRIPOS>BOND
     1     1     2 1   
     2     1    15 1   
     3     1    17 1   
     4     1    18 1   
     5     2     3 1   
     6     2    12 1   
     7     2    14 1   
     8     3     4 1   
     9     4     5 1   
    10     4     6 2   
    11     4    16 1   
    12     5    19 1   
    13     7     8 1   
    14     7     9 1   
    15     7    10 2   
    16     7    16 1   
    17     8    11 1   
    18     9    20 1   
    19    11    12 1   
    20    11    21 1   
    21    11    22 1   
    22    12    13 1   
    23    12    23 1   
    24    13    24 1   
    25    14    25 1   
    26    14    26 1   
    27    14    27 1   
    28    15    28 1   
@<TRIPOS>SUBSTRUCTURE
     1 CDI         1 TEMP              0 ****  ****    0 ROOT
