@<TRIPOS>MOLECULE
CDI
   28    28     1     0     0
SMALL
No Charge or Current Charge


@<TRIPOS>ATOM
      1 C4          -0.1070    -0.4500    -3.0160 c3         1 CDI       0.175600
      2 C3          -0.2220     0.2190    -1.5940 c3         1 CDI       0.293000
      3 OB4          0.9490    -0.2690    -0.8880 os         1 CDI      -0.637400
      4 PB           1.4370     0.0730     0.5930 p5         1 CDI       1.454200
      5 OB2          2.6840    -0.8720     0.5130 oh         1 CDI      -0.725400
      6 OB3          1.7440     1.4780     0.9610 o          1 CDI      -0.582000
      7 PA          -0.4220     0.0760     2.3240 p5         1 CDI       1.425200
      8 OA3         -1.1420     1.0370     1.2520 os         1 CDI      -0.623400
      9 OA1         -1.5320    -1.0030     2.6060 oh         1 CDI      -0.762400
     10 OA2          0.1760     0.6980     3.5310 o          1 CDI      -0.540000
     11 C1          -2.1250     0.6510     0.2740 c3         1 CDI       0.191600
     12 C2          -1.5430    -0.2770    -0.8480 c3         1 CDI       0.096300
     13 O1          -2.6120    -0.5040    -1.7970 oh         1 CDI      -0.650000
     14 C5          -0.1250     1.7650    -1.7340 c3         1 CDI      -0.138100
     15 O2           1.1520    -0.1770    -3.6740 oh         1 CDI      -0.644000
     16 OB1          0.4890    -0.8400     1.4500 os         1 CDI      -0.681800
     17 HC41        -0.2360    -1.5350    -2.9000 h1         1 CDI       0.037200
     18 HC42        -0.9300    -0.0920    -3.6490 h1         1 CDI       0.037200
     19 HB2O         2.2300    -1.2860    -0.2490 ho         1 CDI       0.487000
     20 HA1O        -1.0360    -1.6460     2.0630 ho         1 CDI       0.489000
     21 HC11        -2.9710     0.1440     0.7580 h1         1 CDI       0.063700
     22 HC12        -2.5350     1.5530    -0.2000 h1         1 CDI       0.063700
     23 HC2         -1.2950    -1.2420    -0.3870 h1         1 CDI       0.063700
     24 HO1         -3.2780    -1.0930    -1.3750 ho         1 CDI       0.457000
     25 HC51         0.8210     2.0530    -2.2050 hc         1 CDI       0.069700
     26 HC52        -0.9410     2.1380    -2.3650 hc         1 CDI       0.069700
     27 HC53        -0.1850     2.2850    -0.7730 hc         1 CDI       0.069700
     28 HO2          1.1600    -0.7000    -4.5060 ho         1 CDI       0.443000
@<TRIPOS>BOND
     1     1     2 1   
     2     1    15 1   
     3     1    17 1   
     4     1    18 1   
     5     2     3 1   
     6     2    12 1   
     7     2    14 1   
     8     3     4 1   
     9     4     5 1   
    10     4     6 2   
    11     4    16 1   
    12     5    19 1   
    13     7     8 1   
    14     7     9 1   
    15     7    10 2   
    16     7    16 1   
    17     8    11 1   
    18     9    20 1   
    19    11    12 1   
    20    11    21 1   
    21    11    22 1   
    22    12    13 1   
    23    12    23 1   
    24    13    24 1   
    25    14    25 1   
    26    14    26 1   
    27    14    27 1   
    28    15    28 1   
@<TRIPOS>SUBSTRUCTURE
     1 CDI         1 TEMP              0 ****  ****    0 ROOT
