@<TRIPOS>MOLECULE
CDJ
   30    32     1     0     0
SMALL
abcg2


@<TRIPOS>ATOM
      1 C1          -5.1040    -0.1670    -0.0900 ca         1 CDJ      -0.090000
      2 C2          -4.6090    -1.4580    -0.2550 ca         1 CDJ      -0.157000
      3 C3          -3.2450    -1.7200    -0.2360 ca         1 CDJ       0.277000
      4 C4          -2.3470    -0.6330    -0.0580 ca         1 CDJ      -0.036800
      5 C5          -2.8710     0.6590     0.1300 ca         1 CDJ      -0.129600
      6 C6          -4.2480     0.8930     0.1130 ca         1 CDJ      -0.088000
      7 N7          -2.7650    -2.9960    -0.4460 nv         1 CDJ      -1.064000
      8 C11         -1.9670     1.7900     0.3500 c          1 CDJ       0.571600
      9 N12         -0.6340     1.4810     0.3320 ns         1 CDJ      -0.384100
     10 O13         -2.3380     2.9380     0.5540 o          1 CDJ      -0.555000
     11 C14          1.3650     0.1370     0.0550 ca         1 CDJ      -0.065800
     12 C15          2.1410     1.1710    -0.4700 ca         1 CDJ      -0.085500
     13 C16          3.5220     1.0680    -0.5260 ca         1 CDJ      -0.102000
     14 C17          4.1350    -0.0810    -0.0530 ca         1 CDJ       0.128000
     15 C18          3.3870    -1.1230     0.4750 ca         1 CDJ      -0.102000
     16 C19          2.0090    -1.0060     0.5290 ca         1 CDJ      -0.085500
     17 CL           5.8590    -0.2150    -0.1180 cl         1 CDJ      -0.193000
     18 CAI         -0.1000     0.2360     0.1060 cc         1 CDJ       0.103400
     19 CAH         -0.9280    -0.8150    -0.0890 cd         1 CDJ      -0.232200
     20 H1          -6.1750    -0.0060    -0.1100 ha         1 CDJ       0.117000
     21 H2          -5.3010    -2.2810    -0.3920 ha         1 CDJ       0.112000
     22 H6          -4.6290     1.8940     0.2580 ha         1 CDJ       0.139000
     23 H71N        -3.4630    -3.7200    -0.3880 hn         1 CDJ       0.444500
     24 H72N        -1.9440    -3.2560     0.0770 hn         1 CDJ       0.444500
     25 HAH         -0.4980    -1.7770    -0.3270 ha         1 CDJ       0.196000
     26 H12         -0.0060     2.2480     0.5350 hn         1 CDJ       0.326500
     27 H15          1.6780     2.0650    -0.8680 ha         1 CDJ       0.122500
     28 H19          1.4350    -1.8110     0.9680 ha         1 CDJ       0.122500
     29 H16          4.1080     1.8760    -0.9430 ha         1 CDJ       0.133500
     30 H18          3.8710    -2.0120     0.8540 ha         1 CDJ       0.133500
@<TRIPOS>BOND
     1     1     2 ar  
     2     1     6 ar  
     3     1    20 1   
     4     2     3 ar  
     5     2    21 1   
     6     3     4 ar  
     7     3     7 1   
     8     4     5 ar  
     9     4    19 1   
    10     5     6 ar  
    11     5     8 1   
    12     6    22 1   
    13     7    23 1   
    14     7    24 1   
    15     8     9 1   
    16     8    10 2   
    17     9    18 1   
    18     9    26 1   
    19    11    12 ar  
    20    11    16 ar  
    21    11    18 1   
    22    12    13 ar  
    23    12    27 1   
    24    13    14 ar  
    25    13    29 1   
    26    14    15 ar  
    27    14    17 1   
    28    15    16 ar  
    29    15    30 1   
    30    16    28 1   
    31    18    19 2   
    32    19    25 1   
@<TRIPOS>SUBSTRUCTURE
     1 CDJ         1 TEMP              0 ****  ****    0 ROOT
