@<TRIPOS>MOLECULE
CDJ
   30    32     1     0     0
SMALL
No Charge or Current Charge


@<TRIPOS>ATOM
      1 C1          -5.1660    -0.2260    -0.0110 ca         1 CDJ      -0.090000
      2 C2          -4.6380    -1.5020    -0.2610 ca         1 CDJ      -0.157000
      3 C3          -3.2500    -1.7070    -0.2940 ca         1 CDJ       0.277000
      4 C4          -2.3710    -0.6120    -0.0770 ca         1 CDJ      -0.036800
      5 C5          -2.9040     0.6760     0.1770 ca         1 CDJ      -0.129600
      6 C6          -4.3030     0.8590     0.2080 ca         1 CDJ      -0.088000
      7 N7          -2.7880    -2.9810    -0.5350 nv         1 CDJ      -1.064000
      8 C11         -1.9750     1.8470     0.4110 c          1 CDJ       0.571600
      9 N12         -0.6310     1.5710     0.3580 ns         1 CDJ      -0.384100
     10 O13         -2.3730     2.9810     0.6370 o          1 CDJ      -0.555000
     11 C14          1.3690     0.1610     0.0630 ca         1 CDJ      -0.065800
     12 C15          2.1690     1.1140    -0.6030 ca         1 CDJ      -0.085500
     13 C16          3.5670     0.9620    -0.6510 ca         1 CDJ      -0.102000
     14 C17          4.1750    -0.1400    -0.0300 ca         1 CDJ       0.128000
     15 C18          3.3900    -1.0910     0.6400 ca         1 CDJ      -0.102000
     16 C19          1.9920    -0.9410     0.6880 ca         1 CDJ      -0.085500
     17 Cl           5.9230    -0.3280    -0.0900 cl         1 CDJ      -0.193000
     18 CAI         -0.0850     0.3290     0.1140 cc         1 CDJ       0.103400
     19 CAH         -0.9020    -0.7550    -0.1080 cd         1 CDJ      -0.232200
     20 H1          -6.2430    -0.0770     0.0140 ha         1 CDJ       0.117000
     21 H2          -5.3160    -2.3350    -0.4280 ha         1 CDJ       0.112000
     22 H6          -4.7250     1.8440     0.4020 ha         1 CDJ       0.139000
     23 H71N        -3.4450    -3.7590    -0.5460 hn         1 CDJ       0.444500
     24 H72N        -1.8080    -3.2030    -0.3810 hn         1 CDJ       0.444500
     25 HAH         -0.4490    -1.7130    -0.3360 ha         1 CDJ       0.196000
     26 H12         -0.0200     2.3600     0.5260 hn         1 CDJ       0.326500
     27 H15          1.7100     1.9680    -1.0960 ha         1 CDJ       0.122500
     28 H19          1.3970    -1.6780     1.2230 ha         1 CDJ       0.122500
     29 H16          4.1770     1.6960    -1.1700 ha         1 CDJ       0.133500
     30 H18          3.8630    -1.9410     1.1240 ha         1 CDJ       0.133500
@<TRIPOS>BOND
     1     1     2 ar  
     2     1     6 ar  
     3     1    20 1   
     4     2     3 ar  
     5     2    21 1   
     6     3     4 ar  
     7     3     7 1   
     8     4     5 ar  
     9     4    19 1   
    10     5     6 ar  
    11     5     8 1   
    12     6    22 1   
    13     7    23 1   
    14     7    24 1   
    15     8     9 1   
    16     8    10 2   
    17     9    18 1   
    18     9    26 1   
    19    11    12 ar  
    20    11    16 ar  
    21    11    18 1   
    22    12    13 ar  
    23    12    27 1   
    24    13    14 ar  
    25    13    29 1   
    26    14    15 ar  
    27    14    17 1   
    28    15    16 ar  
    29    15    30 1   
    30    16    28 1   
    31    18    19 2   
    32    19    25 1   
@<TRIPOS>SUBSTRUCTURE
     1 CDJ         1 TEMP              0 ****  ****    0 ROOT
