@<TRIPOS>MOLECULE
CDK
   50    52     1     0     0
SMALL
abcg2


@<TRIPOS>ATOM
      1 C17         29.6310    30.3560    25.9770 c3         1 CDK      -0.051900
      2 C16         28.3060    29.9580    25.4210 cc         1 CDK       0.069400
      3 N4          28.2420    29.5110    24.1100 n          1 CDK      -0.310000
      4 C13         29.3900    29.4710    23.2080 c3         1 CDK       0.083300
      5 C14         27.0030    29.0850    23.6760 c          1 CDK       0.536600
      6 O3          26.7440    28.6550    22.5640 o          1 CDK      -0.500000
      7 S1          25.8510    29.2610    25.0060 ss         1 CDK      -0.069200
      8 C15         27.1020    29.9240    26.0550 cd         1 CDK      -0.207200
      9 C           26.7170    30.3250    27.3950 ca         1 CDK       0.269800
     10 N           25.5560    29.7990    27.8320 nb         1 CDK      -0.241000
     11 C12         27.4270    31.2270    28.1920 ca         1 CDK      -0.263000
     12 C11         26.8900    31.5140    29.4380 ca         1 CDK       0.152900
     13 N3          25.7560    30.9850    29.8870 nb         1 CDK      -0.235000
     14 C1          25.1320    30.1420    29.0430 ca         1 CDK       0.388900
     15 N1          23.9530    29.6340    29.5320 nu         1 CDK      -0.930900
     16 C2          23.0660    28.6990    29.0180 ca         1 CDK       0.373000
     17 C9          21.8880    28.4750    29.7560 ca         1 CDK      -0.179000
     18 C10         20.9520    27.5540    29.3360 ca         1 CDK       0.016500
     19 C3          23.2760    27.9660    27.8420 ca         1 CDK      -0.179000
     20 C4          22.3340    27.0360    27.4270 ca         1 CDK       0.016500
     21 C5          21.1730    26.8310    28.1620 ca         1 CDK      -0.363500
     22 S           20.0020    25.6120    27.6590 sy         1 CDK       1.177600
     23 O1          20.3900    25.1410    26.3500 o          1 CDK      -0.539000
     24 O2          18.6660    26.1310    27.8590 o          1 CDK      -0.539000
     25 N2          20.1420    24.3440    28.6910 n7         1 CDK      -0.855300
     26 C6          21.4510    23.6880    28.8260 c3         1 CDK       0.197800
     27 C7          21.3090    22.3330    29.4820 c3         1 CDK       0.160600
     28 O           20.6270    21.4510    28.6100 os         1 CDK      -0.441000
     29 C8          20.4190    20.1720    29.1890 c3         1 CDK       0.143900
     30 H171        29.6260    30.2990    27.0610 hc         1 CDK       0.061700
     31 H172        30.4130    29.6950    25.6050 hc         1 CDK       0.061700
     32 H173        29.8900    31.3770    25.6840 hc         1 CDK       0.061700
     33 H131        29.0180    29.2490    22.2130 h1         1 CDK       0.058033
     34 H132        29.8930    30.4360    23.2030 h1         1 CDK       0.058033
     35 H133        30.0910    28.6940    23.5130 h1         1 CDK       0.058033
     36 H12         28.3230    31.7200    27.8580 ha         1 CDK       0.136000
     37 H11         27.3930    32.2110    30.0990 h4         1 CDK       0.027100
     38 H1          23.7130    30.0160    30.4360 hn         1 CDK       0.515000
     39 H9          21.7170    29.0380    30.6660 ha         1 CDK       0.136500
     40 H3          24.1680    28.1230    27.2640 ha         1 CDK       0.136500
     41 H10         20.0530    27.3980    29.9160 ha         1 CDK       0.133500
     42 H4          22.5060    26.4700    26.5230 ha         1 CDK       0.133500
     43 H2          19.6980    24.5570    29.5800 hn         1 CDK       0.471000
     44 H61C        21.8720    23.5680    27.8280 h1         1 CDK       0.061700
     45 H62C        22.1400    24.2980    29.4180 h1         1 CDK       0.061700
     46 H71C        22.3110    21.9460    29.7090 h1         1 CDK       0.024700
     47 H72C        20.7640    22.4240    30.4320 h1         1 CDK       0.024700
     48 H81C        21.3720    19.6930    29.4410 h1         1 CDK       0.030700
     49 H82C        19.8110    20.2460    30.0980 h1         1 CDK       0.030700
     50 H83C        19.8940    19.5640    28.4530 h1         1 CDK       0.030700
@<TRIPOS>BOND
     1     1     2 1   
     2     1    30 1   
     3     1    31 1   
     4     1    32 1   
     5     2     3 1   
     6     2     8 2   
     7     3     4 1   
     8     3     5 1   
     9     4    33 1   
    10     4    34 1   
    11     4    35 1   
    12     5     6 2   
    13     5     7 1   
    14     7     8 1   
    15     8     9 1   
    16     9    10 ar  
    17     9    11 ar  
    18    10    14 ar  
    19    11    12 ar  
    20    11    36 1   
    21    12    13 ar  
    22    12    37 1   
    23    13    14 ar  
    24    14    15 1   
    25    15    16 1   
    26    15    38 1   
    27    16    17 ar  
    28    16    19 ar  
    29    17    18 ar  
    30    17    39 1   
    31    18    21 ar  
    32    18    41 1   
    33    19    20 ar  
    34    19    40 1   
    35    20    21 ar  
    36    20    42 1   
    37    21    22 1   
    38    22    23 2   
    39    22    24 2   
    40    22    25 1   
    41    25    26 1   
    42    25    43 1   
    43    26    27 1   
    44    26    44 1   
    45    26    45 1   
    46    27    28 1   
    47    27    46 1   
    48    27    47 1   
    49    28    29 1   
    50    29    48 1   
    51    29    49 1   
    52    29    50 1   
@<TRIPOS>SUBSTRUCTURE
     1 CDK         1 TEMP              0 ****  ****    0 ROOT
