@<TRIPOS>MOLECULE
CDK
   50    52     1     0     0
SMALL
No Charge or Current Charge


@<TRIPOS>ATOM
      1 C17         29.6210    29.8140    25.9250 c3         1 CDK      -0.051900
      2 C16         28.2680    29.9010    25.2530 cc         1 CDK       0.069400
      3 N4          28.1660    29.8590    23.8610 n          1 CDK      -0.310000
      4 C13         29.3360    29.8180    22.9500 c3         1 CDK       0.083300
      5 C14         26.8720    29.8640    23.3310 c          1 CDK       0.536600
      6 O3          26.5730    29.8160    22.1450 o          1 CDK      -0.500000
      7 S1          25.7260    29.9410    24.7200 ss         1 CDK      -0.069200
      8 C15         27.0460    29.9790    25.9030 cd         1 CDK      -0.207200
      9 C           26.7520    30.1390    27.3400 ca         1 CDK       0.269800
     10 N           25.6110    29.5740    27.7830 nb         1 CDK      -0.241000
     11 C12         27.6250    30.7790    28.2400 ca         1 CDK      -0.263000
     12 C11         27.2550    30.8240    29.5930 ca         1 CDK       0.152900
     13 N3          26.1110    30.2640    30.0270 nb         1 CDK      -0.235000
     14 C1          25.3520    29.6580    29.1000 ca         1 CDK       0.388900
     15 N1          24.1660    29.1180    29.5810 nu         1 CDK      -0.930900
     16 C2          23.1480    28.3370    29.0270 ca         1 CDK       0.373000
     17 C9          21.8660    28.4120    29.5940 ca         1 CDK      -0.179000
     18 C10         20.8090    27.6400    29.0840 ca         1 CDK       0.016500
     19 C3          23.3730    27.4570    27.9540 ca         1 CDK      -0.179000
     20 C4          22.3240    26.6790    27.4360 ca         1 CDK       0.016500
     21 C5          21.0380    26.7730    27.9990 ca         1 CDK      -0.363500
     22 S           19.7010    25.7670    27.3390 sy         1 CDK       1.177600
     23 O1          19.8840    25.6280    25.8920 o          1 CDK      -0.539000
     24 O2          18.4260    26.1550    27.9430 o          1 CDK      -0.539000
     25 N2          20.0700    24.2710    27.9730 n7         1 CDK      -0.855300
     26 C6          20.4600    24.1950    29.4020 c3         1 CDK       0.197800
     27 C7          20.6010    22.7300    29.8970 c3         1 CDK       0.160600
     28 O           21.6850    22.0880    29.1930 os         1 CDK      -0.441000
     29 C8          21.9090    20.7190    29.5670 c3         1 CDK       0.143900
     30 H171        29.5440    29.3610    26.9190 hc         1 CDK       0.061700
     31 H172        30.3190    29.1850    25.3600 hc         1 CDK       0.061700
     32 H173        30.0710    30.8080    26.0300 hc         1 CDK       0.061700
     33 H131        29.0490    30.0990    21.9280 h1         1 CDK       0.058033
     34 H132        30.1030    30.5230    23.2940 h1         1 CDK       0.058033
     35 H133        29.7550    28.8050    22.9350 h1         1 CDK       0.058033
     36 H12         28.5390    31.2590    27.9100 ha         1 CDK       0.136000
     37 H11         27.8780    31.3190    30.3370 h4         1 CDK       0.027100
     38 H1          23.9620    29.4290    30.5300 hn         1 CDK       0.515000
     39 H9          21.6810    29.0800    30.4310 ha         1 CDK       0.136500
     40 H3          24.3630    27.3500    27.5250 ha         1 CDK       0.136500
     41 H10         19.8220    27.7210    29.5380 ha         1 CDK       0.133500
     42 H4          22.5180    25.9990    26.6070 ha         1 CDK       0.133500
     43 H2          19.1850    23.7870    27.8380 hn         1 CDK       0.471000
     44 H61C        21.4170    24.7040    29.5760 h1         1 CDK       0.061700
     45 H62C        19.7090    24.6910    30.0330 h1         1 CDK       0.061700
     46 H71C        20.8000    22.7390    30.9760 h1         1 CDK       0.024700
     47 H72C        19.6570    22.1950    29.7300 h1         1 CDK       0.024700
     48 H81C        22.1540    20.6410    30.6340 h1         1 CDK       0.030700
     49 H82C        21.0180    20.1090    29.3680 h1         1 CDK       0.030700
     50 H83C        22.7450    20.2990    28.9930 h1         1 CDK       0.030700
@<TRIPOS>BOND
     1     1     2 1   
     2     1    30 1   
     3     1    31 1   
     4     1    32 1   
     5     2     3 1   
     6     2     8 2   
     7     3     4 1   
     8     3     5 1   
     9     4    33 1   
    10     4    34 1   
    11     4    35 1   
    12     5     6 2   
    13     5     7 1   
    14     7     8 1   
    15     8     9 1   
    16     9    10 ar  
    17     9    11 ar  
    18    10    14 ar  
    19    11    12 ar  
    20    11    36 1   
    21    12    13 ar  
    22    12    37 1   
    23    13    14 ar  
    24    14    15 1   
    25    15    16 1   
    26    15    38 1   
    27    16    17 ar  
    28    16    19 ar  
    29    17    18 ar  
    30    17    39 1   
    31    18    21 ar  
    32    18    41 1   
    33    19    20 ar  
    34    19    40 1   
    35    20    21 ar  
    36    20    42 1   
    37    21    22 1   
    38    22    23 2   
    39    22    24 2   
    40    22    25 1   
    41    25    26 1   
    42    25    43 1   
    43    26    27 1   
    44    26    44 1   
    45    26    45 1   
    46    27    28 1   
    47    27    46 1   
    48    27    47 1   
    49    28    29 1   
    50    29    48 1   
    51    29    49 1   
    52    29    50 1   
@<TRIPOS>SUBSTRUCTURE
     1 CDK         1 TEMP              0 ****  ****    0 ROOT
