@<TRIPOS>MOLECULE
CDM
   56    57     1     0     0
SMALL
No Charge or Current Charge


@<TRIPOS>ATOM
      1 N1          -1.4470    -0.4270    -1.9210 n          1 CDM      -0.305000
      2 C2          -1.6390     0.6940    -2.7590 c          1 CDM       0.710400
      3 N3          -2.8940     0.9120    -3.2690 nc         1 CDM      -0.768100
      4 C4          -3.8590     0.1020    -2.9950 cd         1 CDM       0.778500
      5 C5          -3.7360    -1.0390    -2.1830 cd         1 CDM      -0.515600
      6 C6          -2.4990    -1.2950    -1.6440 cc         1 CDM       0.043600
      7 O2          -0.7390     1.4520    -3.0770 o          1 CDM      -0.493000
      8 N4          -5.0210     0.4080    -3.5310 nv         1 CDM      -1.052200
      9 C1          -0.1350    -0.6780    -1.2680 c5         1 CDM       0.341700
     10 C7           0.8260    -1.3230    -2.3160 c5         1 CDM       0.070300
     11 O6           0.5670    -2.7170    -2.6050 oh         1 CDM      -0.732000
     12 C3           2.1530    -1.1510    -1.5270 c5         1 CDM       0.104300
     13 C8           1.9750     0.2870    -0.9110 c5         1 CDM       0.154300
     14 O4           0.5370     0.5060    -0.8080 os         1 CDM      -0.398000
     15 O3           2.2460    -2.1830    -0.5400 oh         1 CDM      -0.713000
     16 C9           2.6030     1.4030    -1.8030 c3         1 CDM       0.224600
     17 O5           2.5300     2.7110    -1.1990 os         1 CDM      -0.554400
     18 PA           3.2280     3.0610     0.2130 p5         1 CDM       1.452800
     19 O1A          4.4680     2.2460     0.3690 o          1 CDM      -0.848500
     20 O2A          3.4940     4.5290     0.2680 o          1 CDM      -0.848500
     21 O3A          2.0290     2.6390     1.1420 os         1 CDM      -0.683800
     22 PB           2.4770     2.3990     2.6300 p5         1 CDM       1.475800
     23 O1B          3.3280     3.4810     3.2050 o          1 CDM      -0.841000
     24 O2B          3.0330     1.0360     2.8850 o          1 CDM      -0.841000
     25 O3B          1.0080     2.5030     3.2910 os         1 CDM      -0.588400
     26 C1M         -0.1350     1.6500     3.0130 c3         1 CDM       0.193600
     27 C2M          0.1990     0.1230     2.8240 c3         1 CDM       0.138300
     28 O2M          1.1490    -0.3390     3.8110 oh         1 CDM      -0.819000
     29 C3M         -1.0740    -0.8070     2.7840 c3         1 CDM       0.185000
     30 C4M         -0.6790    -2.2540     2.3490 c3         1 CDM       0.125600
     31 C5M         -1.8490    -0.8360     4.1310 c3         1 CDM      -0.067100
     32 O3M         -1.9810    -0.3350     1.7820 oh         1 CDM      -0.668000
     33 O4M         -1.8440    -2.9940     1.9160 oh         1 CDM      -0.727000
     34 H5          -4.5830    -1.6870    -1.9930 ha         1 CDM       0.185000
     35 H6          -2.2360    -2.1290    -0.9970 h4         1 CDM       0.193000
     36 H41         -5.0730     1.3630    -3.8580 hn         1 CDM       0.490500
     37 H42         -5.8360     0.0630    -3.0420 hn         1 CDM       0.490500
     38 H1          -0.3040    -1.3540    -0.4230 h2         1 CDM       0.044700
     39 H2           0.8520    -0.7270    -3.2400 h1         1 CDM       0.092700
     40 HO'2        -0.1840    -2.7550    -3.2450 ho         1 CDM       0.503000
     41 H3           3.0210    -1.1960    -2.2000 h1         1 CDM       0.057700
     42 H4           2.4260     0.3160     0.0880 h1         1 CDM       0.106700
     43 H3T          1.7660    -2.9380    -0.9630 ho         1 CDM       0.495000
     44 H5'1         2.0890     1.4130    -2.7720 h1         1 CDM       0.021700
     45 H5'2         3.6510     1.1440    -2.0000 h1         1 CDM       0.021700
     46 H1M1        -0.6410     2.0070     2.1070 h1         1 CDM       0.023200
     47 H1M2        -0.8530     1.7590     3.8340 h1         1 CDM       0.023200
     48 H2M1         0.6710     0.0360     1.8370 h1         1 CDM       0.023700
     49 H2M2         2.0100     0.1330     3.5340 ho         1 CDM       0.605000
     50 H4M1         0.0580    -2.2050     1.5360 h1         1 CDM       0.032700
     51 H4M2        -0.1940    -2.7630     3.1930 h1         1 CDM       0.032700
     52 H5M1        -1.2060    -1.1870     4.9460 hc         1 CDM       0.037700
     53 H5M2        -2.2300     0.1550     4.4000 hc         1 CDM       0.037700
     54 H5M3        -2.7110    -1.5120     4.0740 hc         1 CDM       0.037700
     55 H3M         -2.4080    -1.1700     1.4790 ho         1 CDM       0.435000
     56 H4M         -1.5780    -3.9410     1.8510 ho         1 CDM       0.476000
@<TRIPOS>BOND
     1     1     2 1   
     2     1     6 1   
     3     1     9 1   
     4     2     3 1   
     5     2     7 2   
     6     3     4 2   
     7     4     5 1   
     8     4     8 1   
     9     5     6 2   
    10     5    34 1   
    11     6    35 1   
    12     8    36 1   
    13     8    37 1   
    14     9    10 1   
    15     9    14 1   
    16     9    38 1   
    17    10    11 1   
    18    10    12 1   
    19    10    39 1   
    20    11    40 1   
    21    12    13 1   
    22    12    15 1   
    23    12    41 1   
    24    13    14 1   
    25    13    16 1   
    26    13    42 1   
    27    15    43 1   
    28    16    17 1   
    29    16    44 1   
    30    16    45 1   
    31    17    18 1   
    32    18    19 1   
    33    18    20 1   
    34    18    21 1   
    35    21    22 1   
    36    22    23 1   
    37    22    24 1   
    38    22    25 1   
    39    25    26 1   
    40    26    27 1   
    41    26    46 1   
    42    26    47 1   
    43    27    28 1   
    44    27    29 1   
    45    27    48 1   
    46    28    49 1   
    47    29    30 1   
    48    29    31 1   
    49    29    32 1   
    50    30    33 1   
    51    30    50 1   
    52    30    51 1   
    53    31    52 1   
    54    31    53 1   
    55    31    54 1   
    56    32    55 1   
    57    33    56 1   
@<TRIPOS>SUBSTRUCTURE
     1 CDM         1 TEMP              0 ****  ****    0 ROOT
