@<TRIPOS>MOLECULE
CDM
   56    57     1     0     0
SMALL
abcg2


@<TRIPOS>ATOM
      1 N1          -0.9870    -0.7480    -4.1010 n          1 CDM      -0.305000
      2 C2          -1.5370     0.5140    -3.8000 c          1 CDM       0.710400
      3 N3          -2.8800     0.6450    -3.8310 nc         1 CDM      -0.768100
      4 C4          -3.6630    -0.3670    -4.1440 cd         1 CDM       0.778500
      5 C5          -3.1410    -1.6570    -4.4650 cd         1 CDM      -0.515600
      6 C6          -1.8020    -1.7860    -4.4180 cc         1 CDM       0.043600
      7 O2          -0.7970     1.4470    -3.5270 o          1 CDM      -0.493000
      8 N4          -4.9800    -0.1670    -4.1580 nv         1 CDM      -1.052200
      9 C1           0.4440    -0.9860    -4.0580 c5         1 CDM       0.341700
     10 C7           1.3040    -0.1400    -4.9950 c5         1 CDM       0.070300
     11 O6           1.2840    -0.7040    -6.2780 oh         1 CDM      -0.732000
     12 C3           2.6630    -0.2330    -4.2900 c5         1 CDM       0.104300
     13 C8           2.2520    -0.2160    -2.8220 c5         1 CDM       0.154300
     14 O4           0.9430    -0.7880    -2.7690 os         1 CDM      -0.398000
     15 O3           3.2920    -1.4580    -4.5730 oh         1 CDM      -0.713000
     16 C9           2.2730     1.1800    -2.2340 c3         1 CDM       0.224600
     17 O5           1.7960     1.1360    -0.9040 os         1 CDM      -0.554400
     18 PA           2.6320     1.9900     0.2210 p5         1 CDM       1.452800
     19 O1A          3.9130     1.2890     0.5440 o          1 CDM      -0.848500
     20 O2A          2.6280     3.4400    -0.1460 o          1 CDM      -0.848500
     21 O3A          1.5260     1.7260     1.4120 os         1 CDM      -0.683800
     22 PB           1.9270     1.4250     2.9660 p5         1 CDM       1.475800
     23 O1B          2.9200     2.4210     3.4670 o          1 CDM      -0.841000
     24 O2B          2.1960    -0.0500     3.1550 o          1 CDM      -0.841000
     25 O3B          0.4300     1.7570     3.5420 os         1 CDM      -0.588400
     26 C1M          0.0690     1.3140     4.8470 c3         1 CDM       0.193600
     27 C2M         -0.5870    -0.0670     4.8140 c3         1 CDM       0.138300
     28 O2M          0.3440    -1.1080     4.6870 oh         1 CDM      -0.819000
     29 C3M         -1.4500    -0.3330     6.0680 c3         1 CDM       0.185000
     30 C4M         -2.0790    -1.7240     5.9360 c3         1 CDM       0.125600
     31 C5M         -0.6370    -0.2200     7.3510 c3         1 CDM      -0.067100
     32 O3M         -2.4700     0.6480     6.1510 oh         1 CDM      -0.668000
     33 O4M         -2.9540    -1.9480     7.0170 oh         1 CDM      -0.727000
     34 H5          -3.7750    -2.4930    -4.7190 ha         1 CDM       0.185000
     35 H6          -1.3180    -2.7280    -4.6330 h4         1 CDM       0.193000
     36 H41         -5.3580     0.7310    -3.9060 hn         1 CDM       0.490500
     37 H42         -5.6230    -0.9090    -4.3690 hn         1 CDM       0.490500
     38 H1           0.5630    -2.0360    -4.3530 h2         1 CDM       0.044700
     39 H2           0.9700     0.8980    -5.0040 h1         1 CDM       0.092700
     40 HO'2         1.5180    -0.0250    -6.9180 ho         1 CDM       0.503000
     41 H3           3.3110     0.6160    -4.5430 h1         1 CDM       0.057700
     42 H4           2.9250    -0.8470    -2.2320 h1         1 CDM       0.106700
     43 H3T          3.1870    -1.6300    -5.5160 ho         1 CDM       0.495000
     44 H5'1         1.6580     1.8640    -2.8240 h1         1 CDM       0.021700
     45 H5'2         3.3080     1.5350    -2.2950 h1         1 CDM       0.021700
     46 H1M1        -0.6380     2.0470     5.2360 h1         1 CDM       0.023200
     47 H1M2         0.9330     1.3100     5.5210 h1         1 CDM       0.023200
     48 H2M1        -1.2810    -0.0570     3.9530 h1         1 CDM       0.023700
     49 H2M2         1.0690    -0.8080     4.0850 ho         1 CDM       0.605000
     50 H4M1        -2.6160    -1.7720     4.9750 h1         1 CDM       0.032700
     51 H4M2        -1.2890    -2.4800     5.8970 h1         1 CDM       0.032700
     52 H5M1         0.2040    -0.9120     7.3350 hc         1 CDM       0.037700
     53 H5M2        -0.2400     0.7870     7.4860 hc         1 CDM       0.037700
     54 H5M3        -1.2460    -0.4520     8.2230 hc         1 CDM       0.037700
     55 H3M         -3.0410     0.5690     5.3790 ho         1 CDM       0.435000
     56 H4M         -3.2660    -2.8550     6.9580 ho         1 CDM       0.476000
@<TRIPOS>BOND
     1     1     2 1   
     2     1     6 1   
     3     1     9 1   
     4     2     3 1   
     5     2     7 2   
     6     3     4 2   
     7     4     5 1   
     8     4     8 1   
     9     5     6 2   
    10     5    34 1   
    11     6    35 1   
    12     8    36 1   
    13     8    37 1   
    14     9    10 1   
    15     9    14 1   
    16     9    38 1   
    17    10    11 1   
    18    10    12 1   
    19    10    39 1   
    20    11    40 1   
    21    12    13 1   
    22    12    15 1   
    23    12    41 1   
    24    13    14 1   
    25    13    16 1   
    26    13    42 1   
    27    15    43 1   
    28    16    17 1   
    29    16    44 1   
    30    16    45 1   
    31    17    18 1   
    32    18    19 1   
    33    18    20 1   
    34    18    21 1   
    35    21    22 1   
    36    22    23 1   
    37    22    24 1   
    38    22    25 1   
    39    25    26 1   
    40    26    27 1   
    41    26    46 1   
    42    26    47 1   
    43    27    28 1   
    44    27    29 1   
    45    27    48 1   
    46    28    49 1   
    47    29    30 1   
    48    29    31 1   
    49    29    32 1   
    50    30    33 1   
    51    30    50 1   
    52    30    51 1   
    53    31    52 1   
    54    31    53 1   
    55    31    54 1   
    56    32    55 1   
    57    33    56 1   
@<TRIPOS>SUBSTRUCTURE
     1 CDM         1 TEMP              0 ****  ****    0 ROOT
