@<TRIPOS>MOLECULE
CDN
  195   194     1     0     0
SMALL
No Charge or Current Charge


@<TRIPOS>ATOM
      1 PB2          1.7410    -3.3110     6.1180 p5         1 CDN       1.390800
      2 O1          -0.7580    -2.7310     3.9220 oh         1 CDN      -0.695000
      3 OB5          3.2380    -3.6960     6.5820 os         1 CDN      -0.564400
      4 OB2          2.1100    -2.8710     4.6070 os         1 CDN      -0.573400
      5 OB3          1.1790    -2.1670     6.8940 o          1 CDN      -0.839500
      6 OB4          0.8740    -4.5290     6.1790 o          1 CDN      -0.839500
      7 CB2          1.5490    -3.5260     3.4540 c3         1 CDN       0.227600
      8 C1           0.3000    -2.7340     2.9440 c3         1 CDN       0.148300
      9 CB3          3.4950    -4.1780     7.9110 c3         1 CDN       0.206600
     10 CB4          4.5450    -3.2900     8.6670 c3         1 CDN       0.147300
     11 CB6          6.0170    -3.3400     8.1360 c3         1 CDN       0.185600
     12 OB8          6.1410    -2.7900     6.8020 os         1 CDN      -0.464000
     13 OB9          7.3970    -4.3680     5.6660 oh         1 CDN      -0.695000
     14 CB7          6.1230    -3.7380     5.7330 c3         1 CDN       0.369300
     15 C71          5.8480    -2.9530     4.4320 c3         1 CDN      -0.098400
     16 C72          5.5330    -3.8640     3.2240 c3         1 CDN      -0.077400
     17 C73          5.1500    -3.0740     1.9520 c3         1 CDN      -0.077400
     18 C74          4.7680    -3.9910     0.7700 c3         1 CDN      -0.070400
     19 C75          4.3080    -3.2100    -0.4780 c3         1 CDN      -0.097100
     20 OB6          4.1280    -1.9000     8.7550 os         1 CDN      -0.443000
     21 OB7          3.2530    -1.8500    10.9080 oh         1 CDN      -0.700000
     22 CB5          2.9600    -1.6230     9.5350 c3         1 CDN       0.379300
     23 C51          2.6160    -0.1340     9.3140 c3         1 CDN      -0.110400
     24 C52          1.2650     0.2950     9.9370 c3         1 CDN      -0.066400
     25 C53          0.9110     1.7710     9.6510 c3         1 CDN      -0.079400
     26 C54         -0.4580     2.1880    10.2330 c3         1 CDN      -0.071400
     27 C55         -0.8090     3.6660     9.9520 c3         1 CDN      -0.077400
     28 C56         -2.1850     4.0800    10.5190 c3         1 CDN      -0.072400
     29 C57         -2.5230     5.5640    10.2580 c3         1 CDN      -0.076400
     30 C58         -3.8980     5.9820    10.8230 c3         1 CDN      -0.073400
     31 C59         -4.2220     7.4740    10.5850 c3         1 CDN      -0.075400
     32 C60         -5.5950     7.8950    11.1520 c3         1 CDN      -0.073400
     33 C61         -5.9090     9.3910    10.9270 c3         1 CDN      -0.075400
     34 C62         -7.2820     9.8140    11.4950 c3         1 CDN      -0.075400
     35 C63         -7.5920    11.3110    11.2740 c3         1 CDN      -0.075400
     36 C64         -8.9620    11.7340    11.8380 c3         1 CDN      -0.087100
     37 PA1         -2.3420    -1.6500     1.1990 p5         1 CDN       1.401800
     38 OA5         -2.2870    -0.3220     0.2900 os         1 CDN      -0.580400
     39 OA4         -3.4780    -2.5380     0.8270 o          1 CDN      -0.818000
     40 OA3         -2.3830    -1.2610     2.6380 o          1 CDN      -0.818000
     41 CA2         -0.2180    -3.2970     1.5780 c3         1 CDN       0.170600
     42 CA3         -2.8150    -0.2780    -1.0540 c3         1 CDN       0.242600
     43 CA4         -2.1920    -1.3700    -1.9720 c3         1 CDN       0.131300
     44 CA6         -2.8800    -1.4350    -3.3670 c3         1 CDN       0.139600
     45 OA8         -2.8470    -0.1330    -3.9910 os         1 CDN      -0.472000
     46 OA9         -2.6970    -0.7610    -6.2150 oh         1 CDN      -0.687000
     47 CA7         -3.4850    -0.0600    -5.2650 c3         1 CDN       0.384300
     48 C31         -3.5740     1.4320    -5.6520 c3         1 CDN      -0.109400
     49 C32         -4.4120     1.6880    -6.9280 c3         1 CDN      -0.071400
     50 C33         -4.5470     3.1860    -7.2820 c3         1 CDN      -0.076400
     51 C34         -5.4230     3.4260    -8.5300 c3         1 CDN      -0.074400
     52 C35         -5.5770     4.9200    -8.8900 c3         1 CDN      -0.075400
     53 C36         -6.4880     5.1450   -10.1160 c3         1 CDN      -0.074400
     54 C37         -6.6640     6.6350   -10.4800 c3         1 CDN      -0.074400
     55 C38         -7.6040     6.8480   -11.6870 c3         1 CDN      -0.074400
     56 C39         -7.7950     8.3370   -12.0490 c3         1 CDN      -0.074400
     57 C40         -8.7550     8.5470   -13.2400 c3         1 CDN      -0.075400
     58 C41         -8.9530    10.0360   -13.5990 c3         1 CDN      -0.075400
     59 C42         -9.9190    10.2480   -14.7800 c3         1 CDN      -0.088100
     60 OA6         -0.7740    -1.0860    -2.1260 os         1 CDN      -0.467000
     61 OA7          0.1070    -3.1440    -1.6140 oh         1 CDN      -0.700000
     62 CA5          0.0320    -2.1520    -2.6170 c3         1 CDN       0.395300
     63 C11          1.4350    -1.5810    -2.9060 c3         1 CDN      -0.102400
     64 C12          2.3470    -2.5730    -3.6640 c3         1 CDN      -0.070400
     65 C13          3.7430    -2.0000    -3.9940 c3         1 CDN      -0.075400
     66 C14          4.6420    -3.0190    -4.7270 c3         1 CDN      -0.074400
     67 C15          6.0440    -2.4690    -5.0680 c3         1 CDN      -0.074400
     68 C16          6.9130    -3.4910    -5.8330 c3         1 CDN      -0.074400
     69 C17          8.3170    -2.9580    -6.1910 c3         1 CDN      -0.074400
     70 C18          9.1640    -3.9840    -6.9750 c3         1 CDN      -0.074400
     71 C19         10.5710    -3.4630    -7.3410 c3         1 CDN      -0.074400
     72 C20         11.4050    -4.4920    -8.1370 c3         1 CDN      -0.074400
     73 C21         12.8140    -3.9780    -8.5050 c3         1 CDN      -0.074400
     74 C22         13.6400    -5.0080    -9.3080 c3         1 CDN      -0.075400
     75 C23         15.0500    -4.4960    -9.6760 c3         1 CDN      -0.075400
     76 C24         15.8720    -5.5210   -10.4810 c3         1 CDN      -0.088100
     77 HO11        -1.4560    -2.1150     3.5350 ho         1 CDN       0.499000
     78 HB21         2.2980    -3.5530     2.6530 h1         1 CDN       0.012200
     79 HB22         1.2720    -4.5660     3.6690 h1         1 CDN       0.012200
     80 HC11         0.6340    -1.7020     2.7640 h1         1 CDN       0.029700
     81 HB32         3.8830    -5.2040     7.8600 h1         1 CDN       0.016700
     82 HB33         2.5690    -4.2220     8.5010 h1         1 CDN       0.016700
     83 HB41         4.6030    -3.7050     9.6810 h1         1 CDN       0.015700
     84 HB61         6.6390    -2.7560     8.8270 h1         1 CDN       0.028200
     85 HB62         6.3830    -4.3750     8.1770 h1         1 CDN       0.028200
     86 HB91         8.0430    -3.6360     5.7470 ho         1 CDN       0.424000
     87 HB71         5.3440    -4.5000     5.8710 h2         1 CDN       0.112700
     88 H711         4.9890    -2.2930     4.6050 hc         1 CDN       0.061200
     89 H712         6.7030    -2.3060     4.1990 hc         1 CDN       0.061200
     90 H721         6.4030    -4.4990     3.0080 hc         1 CDN       0.051700
     91 H722         4.7050    -4.5350     3.4920 hc         1 CDN       0.051700
     92 H731         4.3060    -2.4080     2.1790 hc         1 CDN       0.040700
     93 H732         5.9910    -2.4320     1.6560 hc         1 CDN       0.040700
     94 H741         5.6330    -4.6150     0.5030 hc         1 CDN       0.030700
     95 H742         3.9630    -4.6730     1.0800 hc         1 CDN       0.030700
     96 H751         4.0850    -3.9030    -1.2970 hc         1 CDN       0.031367
     97 H752         3.4010    -2.6290    -0.2610 hc         1 CDN       0.031367
     98 H753         5.0930    -2.5190    -0.8180 hc         1 CDN       0.031367
     99 HB7O         4.0950    -1.3750    11.0690 ho         1 CDN       0.437000
    100 HB51         2.1090    -2.2470     9.2350 h2         1 CDN       0.063700
    101 H511         2.5740     0.0490     8.2330 hc         1 CDN       0.071200
    102 H512         3.4230     0.4940     9.7100 hc         1 CDN       0.071200
    103 H521         1.2950     0.1370    11.0230 hc         1 CDN       0.031700
    104 H522         0.4690    -0.3490     9.5410 hc         1 CDN       0.031700
    105 H531         0.9030     1.9360     8.5660 hc         1 CDN       0.047200
    106 H532         1.6930     2.4180    10.0680 hc         1 CDN       0.047200
    107 H541        -0.4560     2.0170    11.3180 hc         1 CDN       0.029700
    108 H542        -1.2400     1.5450     9.8080 hc         1 CDN       0.029700
    109 H551        -0.8000     3.8400     8.8680 hc         1 CDN       0.042700
    110 H552        -0.0320     4.3090    10.3870 hc         1 CDN       0.042700
    111 H561        -2.2010     3.8920    11.6010 hc         1 CDN       0.031700
    112 H562        -2.9630     3.4480    10.0720 hc         1 CDN       0.031700
    113 H571        -2.5060     5.7530     9.1760 hc         1 CDN       0.040700
    114 H572        -1.7440     6.1950    10.7050 hc         1 CDN       0.040700
    115 H581        -3.9220     5.7780    11.9010 hc         1 CDN       0.033200
    116 H582        -4.6800     5.3650    10.3620 hc         1 CDN       0.033200
    117 H591        -4.1990     7.6800     9.5070 hc         1 CDN       0.039200
    118 H592        -3.4380     8.0900    11.0440 hc         1 CDN       0.039200
    119 H601        -5.6220     7.6800    12.2280 hc         1 CDN       0.034200
    120 H602        -6.3800     7.2880    10.6830 hc         1 CDN       0.034200
    121 H611        -5.8810     9.6070     9.8520 hc         1 CDN       0.038200
    122 H612        -5.1240     9.9980    11.3960 hc         1 CDN       0.038200
    123 H621        -7.3110     9.5950    12.5700 hc         1 CDN       0.035200
    124 H622        -8.0680     9.2110    11.0230 hc         1 CDN       0.035200
    125 H631        -7.5640    11.5340    10.2000 hc         1 CDN       0.037200
    126 H632        -6.8090    11.9180    11.7470 hc         1 CDN       0.037200
    127 H641        -9.1360    12.8020    11.6580 hc         1 CDN       0.028367
    128 H642        -9.7700    11.1690    11.3580 hc         1 CDN       0.028367
    129 H643        -9.0080    11.5560    12.9190 hc         1 CDN       0.028367
    130 HA21         0.6500    -3.6540     1.0090 h1         1 CDN       0.028200
    131 HA22        -0.8630    -4.1690     1.7550 h1         1 CDN       0.028200
    132 HA31        -3.9030    -0.4220    -1.0290 h1         1 CDN       0.033700
    133 HA32        -2.6300     0.7110    -1.4930 h1         1 CDN       0.033700
    134 HA41        -2.3480    -2.3510    -1.5080 h1         1 CDN       0.092700
    135 HA61        -2.3890    -2.1890    -3.9940 h1         1 CDN       0.029200
    136 HA62        -3.9210    -1.7550    -3.2250 h1         1 CDN       0.029200
    137 HA91        -1.7810    -0.4630    -6.0410 ho         1 CDN       0.443000
    138 HA71        -4.4940    -0.4940    -5.2290 h2         1 CDN       0.056700
    139 H311        -4.0290     1.9790    -4.8170 hc         1 CDN       0.059200
    140 H312        -2.5640     1.8390    -5.7860 hc         1 CDN       0.059200
    141 H321        -3.9570     1.1610    -7.7770 hc         1 CDN       0.039700
    142 H322        -5.4130     1.2620    -6.7880 hc         1 CDN       0.039700
    143 H331        -4.9830     3.7210    -6.4280 hc         1 CDN       0.039200
    144 H332        -3.5490     3.6100    -7.4520 hc         1 CDN       0.039200
    145 H341        -4.9870     2.8940    -9.3850 hc         1 CDN       0.035700
    146 H342        -6.4170     2.9950    -8.3580 hc         1 CDN       0.035700
    147 H351        -5.9930     5.4580    -8.0280 hc         1 CDN       0.037700
    148 H352        -4.5870     5.3490    -9.0890 hc         1 CDN       0.037700
    149 H361        -6.0710     4.6100   -10.9780 hc         1 CDN       0.035700
    150 H362        -7.4740     4.7070    -9.9150 hc         1 CDN       0.035700
    151 H371        -7.0640     7.1740    -9.6120 hc         1 CDN       0.037200
    152 H372        -5.6820     7.0710   -10.7040 hc         1 CDN       0.037200
    153 H381        -7.2020     6.3140   -12.5570 hc         1 CDN       0.036200
    154 H382        -8.5820     6.4050   -11.4620 hc         1 CDN       0.036200
    155 H391        -8.1840     8.8730   -11.1750 hc         1 CDN       0.037200
    156 H392        -6.8200     8.7770   -12.2890 hc         1 CDN       0.037200
    157 H401        -8.3660     8.0130   -14.1170 hc         1 CDN       0.036200
    158 H402        -9.7290     8.1020   -13.0010 hc         1 CDN       0.036200
    159 H411        -9.3370    10.5740   -12.7240 hc         1 CDN       0.036700
    160 H412        -7.9810    10.4820   -13.8490 hc         1 CDN       0.036700
    161 H421       -10.0270    11.3180   -14.9980 hc         1 CDN       0.029700
    162 H422        -9.5450     9.7500   -15.6830 hc         1 CDN       0.029700
    163 H423       -10.9120     9.8440   -14.5470 hc         1 CDN       0.029700
    164 HA7O        -0.2070    -2.6860    -0.7920 ho         1 CDN       0.496000
    165 HA51        -0.3820    -2.5870    -3.5340 h2         1 CDN       0.030700
    166 H111         1.3240    -0.6730    -3.5110 hc         1 CDN       0.054700
    167 H112         1.9120    -1.2810    -1.9650 hc         1 CDN       0.054700
    168 H121         2.4630    -3.4860    -3.0670 hc         1 CDN       0.041700
    169 H122         1.8530    -2.8690    -4.5980 hc         1 CDN       0.041700
    170 H131         3.6270    -1.1050    -4.6180 hc         1 CDN       0.037700
    171 H132         4.2350    -1.6830    -3.0670 hc         1 CDN       0.037700
    172 H141         4.7510    -3.9160    -4.1040 hc         1 CDN       0.036200
    173 H142         4.1440    -3.3330    -5.6530 hc         1 CDN       0.036200
    174 H151         5.9370    -1.5600    -5.6740 hc         1 CDN       0.036700
    175 H152         6.5540    -2.1800    -4.1410 hc         1 CDN       0.036700
    176 H161         7.0180    -4.4000    -5.2260 hc         1 CDN       0.036200
    177 H162         6.3950    -3.7820    -6.7560 hc         1 CDN       0.036200
    178 H171         8.2140    -2.0430    -6.7880 hc         1 CDN       0.036200
    179 H172         8.8440    -2.6820    -5.2690 hc         1 CDN       0.036200
    180 H181         9.2650    -4.8990    -6.3770 hc         1 CDN       0.036200
    181 H182         8.6330    -4.2600    -7.8940 hc         1 CDN       0.036200
    182 H191        10.4730    -2.5440    -7.9330 hc         1 CDN       0.036700
    183 H192        11.1080    -3.1970    -6.4220 hc         1 CDN       0.036700
    184 H201        11.5010    -5.4110    -7.5450 hc         1 CDN       0.036700
    185 H202        10.8670    -4.7580    -9.0550 hc         1 CDN       0.036700
    186 H211        12.7190    -3.0560    -9.0920 hc         1 CDN       0.036200
    187 H212        13.3540    -3.7200    -7.5860 hc         1 CDN       0.036200
    188 H221        13.7340    -5.9300    -8.7210 hc         1 CDN       0.036700
    189 H222        13.1000    -5.2660   -10.2270 hc         1 CDN       0.036700
    190 H231        14.9610    -3.5730   -10.2620 hc         1 CDN       0.035700
    191 H232        15.5960    -4.2430    -8.7590 hc         1 CDN       0.035700
    192 H241        16.8630    -5.1150   -10.7180 hc         1 CDN       0.029367
    193 H242        16.0090    -6.4460    -9.9070 hc         1 CDN       0.029367
    194 H243        15.3690    -5.7690   -11.4230 hc         1 CDN       0.029367
    195 OA2         -0.9140    -2.2970     0.7870 os         1 CDN      -0.628400
@<TRIPOS>BOND
     1     1     3 1   
     2     1     4 1   
     3     1     5 1   
     4     1     6 1   
     5     2     8 1   
     6     2    77 1   
     7     3     9 1   
     8     4     7 1   
     9     7     8 1   
    10     7    78 1   
    11     7    79 1   
    12     8    41 1   
    13     8    80 1   
    14     9    10 1   
    15     9    81 1   
    16     9    82 1   
    17    10    11 1   
    18    10    20 1   
    19    10    83 1   
    20    11    12 1   
    21    11    84 1   
    22    11    85 1   
    23    12    14 1   
    24    13    14 1   
    25    13    86 1   
    26    14    15 1   
    27    14    87 1   
    28    15    16 1   
    29    15    88 1   
    30    15    89 1   
    31    16    17 1   
    32    16    90 1   
    33    16    91 1   
    34    17    18 1   
    35    17    92 1   
    36    17    93 1   
    37    18    19 1   
    38    18    94 1   
    39    18    95 1   
    40    19    96 1   
    41    19    97 1   
    42    19    98 1   
    43    20    22 1   
    44    21    22 1   
    45    21    99 1   
    46    22    23 1   
    47    22   100 1   
    48    23    24 1   
    49    23   101 1   
    50    23   102 1   
    51    24    25 1   
    52    24   103 1   
    53    24   104 1   
    54    25    26 1   
    55    25   105 1   
    56    25   106 1   
    57    26    27 1   
    58    26   107 1   
    59    26   108 1   
    60    27    28 1   
    61    27   109 1   
    62    27   110 1   
    63    28    29 1   
    64    28   111 1   
    65    28   112 1   
    66    29    30 1   
    67    29   113 1   
    68    29   114 1   
    69    30    31 1   
    70    30   115 1   
    71    30   116 1   
    72    31    32 1   
    73    31   117 1   
    74    31   118 1   
    75    32    33 1   
    76    32   119 1   
    77    32   120 1   
    78    33    34 1   
    79    33   121 1   
    80    33   122 1   
    81    34    35 1   
    82    34   123 1   
    83    34   124 1   
    84    35    36 1   
    85    35   125 1   
    86    35   126 1   
    87    36   127 1   
    88    36   128 1   
    89    36   129 1   
    90    37    38 1   
    91    37    39 1   
    92    37    40 1   
    93    37   195 1   
    94    38    42 1   
    95    41   130 1   
    96    41   131 1   
    97    41   195 1   
    98    42    43 1   
    99    42   132 1   
   100    42   133 1   
   101    43    44 1   
   102    43    60 1   
   103    43   134 1   
   104    44    45 1   
   105    44   135 1   
   106    44   136 1   
   107    45    47 1   
   108    46    47 1   
   109    46   137 1   
   110    47    48 1   
   111    47   138 1   
   112    48    49 1   
   113    48   139 1   
   114    48   140 1   
   115    49    50 1   
   116    49   141 1   
   117    49   142 1   
   118    50    51 1   
   119    50   143 1   
   120    50   144 1   
   121    51    52 1   
   122    51   145 1   
   123    51   146 1   
   124    52    53 1   
   125    52   147 1   
   126    52   148 1   
   127    53    54 1   
   128    53   149 1   
   129    53   150 1   
   130    54    55 1   
   131    54   151 1   
   132    54   152 1   
   133    55    56 1   
   134    55   153 1   
   135    55   154 1   
   136    56    57 1   
   137    56   155 1   
   138    56   156 1   
   139    57    58 1   
   140    57   157 1   
   141    57   158 1   
   142    58    59 1   
   143    58   159 1   
   144    58   160 1   
   145    59   161 1   
   146    59   162 1   
   147    59   163 1   
   148    60    62 1   
   149    61    62 1   
   150    61   164 1   
   151    62    63 1   
   152    62   165 1   
   153    63    64 1   
   154    63   166 1   
   155    63   167 1   
   156    64    65 1   
   157    64   168 1   
   158    64   169 1   
   159    65    66 1   
   160    65   170 1   
   161    65   171 1   
   162    66    67 1   
   163    66   172 1   
   164    66   173 1   
   165    67    68 1   
   166    67   174 1   
   167    67   175 1   
   168    68    69 1   
   169    68   176 1   
   170    68   177 1   
   171    69    70 1   
   172    69   178 1   
   173    69   179 1   
   174    70    71 1   
   175    70   180 1   
   176    70   181 1   
   177    71    72 1   
   178    71   182 1   
   179    71   183 1   
   180    72    73 1   
   181    72   184 1   
   182    72   185 1   
   183    73    74 1   
   184    73   186 1   
   185    73   187 1   
   186    74    75 1   
   187    74   188 1   
   188    74   189 1   
   189    75    76 1   
   190    75   190 1   
   191    75   191 1   
   192    76   192 1   
   193    76   193 1   
   194    76   194 1   
@<TRIPOS>SUBSTRUCTURE
     1 CDN         1 TEMP              0 ****  ****    0 ROOT
