@<TRIPOS>MOLECULE
CDN
  195   194     1     0     0
SMALL
abcg2


@<TRIPOS>ATOM
      1 PB2          2.5110    -3.3460     5.9100 p5         1 CDN       1.390800
      2 O1          -0.3510    -1.3310     3.5960 oh         1 CDN      -0.695000
      3 OB5          3.3340    -2.1680     6.6940 os         1 CDN      -0.564400
      4 OB2          1.9550    -2.3270     4.7540 os         1 CDN      -0.573400
      5 OB3          1.3780    -3.8320     6.7640 o          1 CDN      -0.839500
      6 OB4          3.4530    -4.3510     5.3130 o          1 CDN      -0.839500
      7 CB2          1.4320    -2.8890     3.5710 c3         1 CDN       0.227600
      8 C1           0.6960    -1.8100     2.7980 c3         1 CDN       0.148300
      9 CB3          3.9340    -2.4970     7.9260 c3         1 CDN       0.206600
     10 CB4          4.9000    -1.4060     8.3620 c3         1 CDN       0.147300
     11 CB6          6.1700    -1.2720     7.5360 c3         1 CDN       0.185600
     12 OB8          5.9570    -0.7860     6.2310 os         1 CDN      -0.464000
     13 OB9          7.3610    -2.0880     4.9290 oh         1 CDN      -0.695000
     14 CB7          6.0320    -1.7320     5.1990 c3         1 CDN       0.369300
     15 C71          5.3210    -1.1450     3.9930 c3         1 CDN      -0.098400
     16 C72          5.2150    -2.1260     2.8340 c3         1 CDN      -0.077400
     17 C73          4.4960    -1.5280     1.6310 c3         1 CDN      -0.077400
     18 C74          4.3030    -2.5230     0.4950 c3         1 CDN      -0.070400
     19 C75          3.6000    -1.9200    -0.7110 c3         1 CDN      -0.097100
     20 OB6          4.2480    -0.1510     8.3990 os         1 CDN      -0.443000
     21 OB7          4.5520     0.6100    10.5600 oh         1 CDN      -0.700000
     22 CB5          3.6260     0.1690     9.6100 c3         1 CDN       0.379300
     23 C51          2.5360     1.1850     9.3110 c3         1 CDN      -0.110400
     24 C52          1.8050     1.6720    10.5560 c3         1 CDN      -0.066400
     25 C53          0.5750     2.5060    10.2210 c3         1 CDN      -0.079400
     26 C54         -0.1290     3.0580    11.4550 c3         1 CDN      -0.071400
     27 C55         -1.4300     3.7790    11.1310 c3         1 CDN      -0.077400
     28 C56         -2.1140     4.3760    12.3540 c3         1 CDN      -0.072400
     29 C57         -3.4680     5.0000    12.0380 c3         1 CDN      -0.076400
     30 C58         -4.1490     5.6210    13.2510 c3         1 CDN      -0.073400
     31 C59         -5.5250     6.1950    12.9370 c3         1 CDN      -0.075400
     32 C60         -6.2080     6.8240    14.1450 c3         1 CDN      -0.073400
     33 C61         -7.5940     7.3750    13.8320 c3         1 CDN      -0.075400
     34 C62         -8.2780     8.0070    15.0380 c3         1 CDN      -0.075400
     35 C63         -9.6710     8.5440    14.7290 c3         1 CDN      -0.075400
     36 C64        -10.3400     9.1810    15.9380 c3         1 CDN      -0.087100
     37 PA1         -1.5700    -0.6140     0.6380 p5         1 CDN       1.401800
     38 OA5         -1.4180     0.3210    -0.6820 os         1 CDN      -0.580400
     39 OA4         -2.7180    -1.5630     0.5200 o          1 CDN      -0.818000
     40 OA3         -1.4620     0.3010     1.8350 o          1 CDN      -0.818000
     41 CA2          0.2280    -2.3970     1.4660 c3         1 CDN       0.170600
     42 CA3         -2.2780     0.1930    -1.8030 c3         1 CDN       0.242600
     43 CA4         -1.9500    -1.0160    -2.6630 c3         1 CDN       0.131300
     44 CA6         -2.8760    -1.1220    -3.8620 c3         1 CDN       0.139600
     45 OA8         -2.7200     0.0190    -4.6730 os         1 CDN      -0.472000
     46 OA9         -3.5890    -0.8960    -6.6220 oh         1 CDN      -0.687000
     47 CA7         -3.6600     0.1530    -5.7020 c3         1 CDN       0.384300
     48 C31         -3.4310     1.5140    -6.3370 c3         1 CDN      -0.109400
     49 C32         -4.4120     1.8330    -7.4580 c3         1 CDN      -0.071400
     50 C33         -4.1690     3.2080    -8.0660 c3         1 CDN      -0.076400
     51 C34         -5.1300     3.5390    -9.2010 c3         1 CDN      -0.074400
     52 C35         -4.8720     4.9030    -9.8290 c3         1 CDN      -0.075400
     53 C36         -5.8270     5.2330   -10.9680 c3         1 CDN      -0.074400
     54 C37         -5.5620     6.5920   -11.6040 c3         1 CDN      -0.074400
     55 C38         -6.5160     6.9180   -12.7460 c3         1 CDN      -0.074400
     56 C39         -6.2500     8.2750   -13.3870 c3         1 CDN      -0.074400
     57 C40         -7.2050     8.5970   -14.5290 c3         1 CDN      -0.075400
     58 C41         -6.9430     9.9520   -15.1740 c3         1 CDN      -0.075400
     59 C42         -7.9020    10.2580   -16.3160 c3         1 CDN      -0.088100
     60 OA6         -0.5970    -0.8950    -3.0550 os         1 CDN      -0.467000
     61 OA7          0.1410    -2.9050    -2.1720 oh         1 CDN      -0.700000
     62 CA5          0.0960    -2.0830    -3.3040 c3         1 CDN       0.395300
     63 C11          1.4760    -1.6890    -3.8060 c3         1 CDN      -0.102400
     64 C12          2.3020    -2.8820    -4.2610 c3         1 CDN      -0.070400
     65 C13          3.6980    -2.4910    -4.7330 c3         1 CDN      -0.075400
     66 C14          4.4840    -3.6720    -5.2870 c3         1 CDN      -0.074400
     67 C15          5.8860    -3.3050    -5.7580 c3         1 CDN      -0.074400
     68 C16          6.6360    -4.4850    -6.3650 c3         1 CDN      -0.074400
     69 C17          8.0380    -4.1320    -6.8470 c3         1 CDN      -0.074400
     70 C18          8.7680    -5.3140    -7.4730 c3         1 CDN      -0.074400
     71 C19         10.1680    -4.9700    -7.9660 c3         1 CDN      -0.074400
     72 C20         10.8880    -6.1550    -8.5980 c3         1 CDN      -0.074400
     73 C21         12.2870    -5.8170    -9.0990 c3         1 CDN      -0.074400
     74 C22         12.9990    -7.0040    -9.7350 c3         1 CDN      -0.075400
     75 C23         14.4010    -6.6720   -10.2340 c3         1 CDN      -0.075400
     76 C24         15.0970    -7.8650   -10.8760 c3         1 CDN      -0.088100
     77 HO11        -0.8070    -0.6250     3.0840 ho         1 CDN       0.499000
     78 HB21         2.2360    -3.2960     2.9480 h1         1 CDN       0.012200
     79 HB22         0.7390    -3.7140     3.7870 h1         1 CDN       0.012200
     80 HC11         1.4200    -1.0100     2.5670 h1         1 CDN       0.029700
     81 HB32         4.4880    -3.4430     7.8750 h1         1 CDN       0.016700
     82 HB33         3.1670    -2.6220     8.7010 h1         1 CDN       0.016700
     83 HB41         5.2470    -1.6990     9.3640 h1         1 CDN       0.015700
     84 HB61         6.8300    -0.5670     8.0510 h1         1 CDN       0.028200
     85 HB62         6.6880    -2.2380     7.5360 h1         1 CDN       0.028200
     86 HB91         7.8050    -1.3370     4.5180 ho         1 CDN       0.424000
     87 HB71         5.5430    -2.6670     5.4870 h2         1 CDN       0.112700
     88 H711         4.3150    -0.8550     4.3030 hc         1 CDN       0.061200
     89 H712         5.8370    -0.2300     3.6740 hc         1 CDN       0.061200
     90 H721         6.2100    -2.4610     2.5270 hc         1 CDN       0.051700
     91 H722         4.6770    -3.0150     3.1790 hc         1 CDN       0.051700
     92 H731         3.5190    -1.1420     1.9440 hc         1 CDN       0.040700
     93 H732         5.0570    -0.6610     1.2660 hc         1 CDN       0.040700
     94 H741         5.2760    -2.9210     0.1900 hc         1 CDN       0.030700
     95 H742         3.7290    -3.3820     0.8610 hc         1 CDN       0.030700
     96 H751         3.4690    -2.6580    -1.5040 hc         1 CDN       0.031367
     97 H752         2.6110    -1.5390    -0.4470 hc         1 CDN       0.031367
     98 H753         4.1680    -1.0860    -1.1280 hc         1 CDN       0.031367
     99 HB7O         4.8970     1.4670    10.2830 ho         1 CDN       0.437000
    100 HB51         3.1740    -0.7260    10.0570 h2         1 CDN       0.063700
    101 H511         1.8220     0.7160     8.6280 hc         1 CDN       0.071200
    102 H512         2.9660     2.0380     8.7720 hc         1 CDN       0.071200
    103 H521         2.4830     2.2570    11.1840 hc         1 CDN       0.031700
    104 H522         1.4950     0.8120    11.1610 hc         1 CDN       0.031700
    105 H531        -0.1300     1.8950     9.6450 hc         1 CDN       0.047200
    106 H532         0.8600     3.3360     9.5660 hc         1 CDN       0.047200
    107 H541         0.5480     3.7370    11.9850 hc         1 CDN       0.029700
    108 H542        -0.3380     2.2380    12.1520 hc         1 CDN       0.029700
    109 H551        -2.1150     3.0790    10.6390 hc         1 CDN       0.042700
    110 H552        -1.2370     4.5730    10.4000 hc         1 CDN       0.042700
    111 H561        -1.4600     5.1290    12.8060 hc         1 CDN       0.031700
    112 H562        -2.2470     3.5970    13.1140 hc         1 CDN       0.031700
    113 H571        -4.1230     4.2350    11.6070 hc         1 CDN       0.040700
    114 H572        -3.3440     5.7630    11.2610 hc         1 CDN       0.040700
    115 H581        -3.5100     6.4100    13.6630 hc         1 CDN       0.033200
    116 H582        -4.2440     4.8670    14.0400 hc         1 CDN       0.033200
    117 H591        -6.1620     5.4010    12.5330 hc         1 CDN       0.039200
    118 H592        -5.4330     6.9430    12.1420 hc         1 CDN       0.039200
    119 H601        -5.5780     7.6280    14.5420 hc         1 CDN       0.034200
    120 H602        -6.2880     6.0790    14.9450 hc         1 CDN       0.034200
    121 H611        -8.2230     6.5680    13.4400 hc         1 CDN       0.038200
    122 H612        -7.5160     8.1160    13.0290 hc         1 CDN       0.038200
    123 H621        -7.6540     8.8200    15.4250 hc         1 CDN       0.035200
    124 H622        -8.3480     7.2690    15.8450 hc         1 CDN       0.035200
    125 H631       -10.2940     7.7300    14.3470 hc         1 CDN       0.037200
    126 H632        -9.6030     9.2780    13.9200 hc         1 CDN       0.037200
    127 H641       -11.3390     9.5490    15.6990 hc         1 CDN       0.028367
    128 H642       -10.4390     8.4670    16.7580 hc         1 CDN       0.028367
    129 H643        -9.7580    10.0270    16.3080 hc         1 CDN       0.028367
    130 HA21         1.0520    -2.9610     1.0220 h1         1 CDN       0.028200
    131 HA22        -0.5940    -3.1020     1.6360 h1         1 CDN       0.028200
    132 HA31        -3.3260     0.1310    -1.4950 h1         1 CDN       0.033700
    133 HA32        -2.1600     1.1110    -2.3790 h1         1 CDN       0.033700
    134 HA41        -2.1050    -1.9170    -2.0590 h1         1 CDN       0.092700
    135 HA61        -2.6530    -2.0410    -4.4170 h1         1 CDN       0.029200
    136 HA62        -3.9110    -1.2170    -3.5020 h1         1 CDN       0.029200
    137 HA91        -2.7880    -0.7970    -7.1510 ho         1 CDN       0.443000
    138 HA71        -4.6770     0.0940    -5.2870 h2         1 CDN       0.056700
    139 H311        -3.5070     2.2780    -5.5580 hc         1 CDN       0.059200
    140 H312        -2.4040     1.5600    -6.7190 hc         1 CDN       0.059200
    141 H321        -4.3400     1.0760    -8.2440 hc         1 CDN       0.039700
    142 H322        -5.4380     1.7810    -7.0760 hc         1 CDN       0.039700
    143 H331        -4.2490     3.9740    -7.2870 hc         1 CDN       0.039200
    144 H332        -3.1390     3.2610    -8.4370 hc         1 CDN       0.039200
    145 H341        -5.0590     2.7660    -9.9740 hc         1 CDN       0.035700
    146 H342        -6.1600     3.5000    -8.8290 hc         1 CDN       0.035700
    147 H351        -4.9440     5.6780    -9.0570 hc         1 CDN       0.037700
    148 H352        -3.8400     4.9410   -10.1980 hc         1 CDN       0.037700
    149 H361        -5.7580     4.4540   -11.7360 hc         1 CDN       0.035700
    150 H362        -6.8590     5.2010   -10.5980 hc         1 CDN       0.035700
    151 H371        -5.6320     7.3720   -10.8380 hc         1 CDN       0.037200
    152 H372        -4.5300     6.6230   -11.9730 hc         1 CDN       0.037200
    153 H381        -6.4470     6.1360   -13.5110 hc         1 CDN       0.036200
    154 H382        -7.5480     6.8880   -12.3770 hc         1 CDN       0.036200
    155 H391        -6.3210     9.0570   -12.6230 hc         1 CDN       0.037200
    156 H392        -5.2190     8.3050   -13.7560 hc         1 CDN       0.037200
    157 H401        -7.1350     7.8140   -15.2930 hc         1 CDN       0.036200
    158 H402        -8.2370     8.5660   -14.1600 hc         1 CDN       0.036200
    159 H411        -7.0180    10.7360   -14.4130 hc         1 CDN       0.036700
    160 H412        -5.9120     9.9840   -15.5400 hc         1 CDN       0.036700
    161 H421        -7.6970    11.2300   -16.7660 hc         1 CDN       0.029700
    162 H422        -7.8280     9.5060   -17.1040 hc         1 CDN       0.029700
    163 H423        -8.9370    10.2660   -15.9680 hc         1 CDN       0.029700
    164 HA7O         0.3630    -2.3570    -1.4060 ho         1 CDN       0.496000
    165 HA51        -0.4110    -2.6870    -4.0720 h2         1 CDN       0.030700
    166 H111         1.3560    -0.9930    -4.6410 hc         1 CDN       0.054700
    167 H112         2.0030    -1.1410    -3.0150 hc         1 CDN       0.054700
    168 H121         2.3870    -3.6120    -3.4510 hc         1 CDN       0.041700
    169 H122         1.7780    -3.3940    -5.0770 hc         1 CDN       0.041700
    170 H131         3.6180    -1.7150    -5.5030 hc         1 CDN       0.037700
    171 H132         4.2500    -2.0390    -3.9010 hc         1 CDN       0.037700
    172 H141         4.5520    -4.4550    -4.5240 hc         1 CDN       0.036200
    173 H142         3.9280    -4.1120    -6.1220 hc         1 CDN       0.036200
    174 H151         5.8200    -2.4990    -6.4960 hc         1 CDN       0.036700
    175 H152         6.4600    -2.9010    -4.9160 hc         1 CDN       0.036700
    176 H161         6.7000    -5.2930    -5.6280 hc         1 CDN       0.036200
    177 H162         6.0560    -4.8860    -7.2040 hc         1 CDN       0.036200
    178 H171         7.9750    -3.3170    -7.5760 hc         1 CDN       0.036200
    179 H172         8.6260    -3.7440    -6.0070 hc         1 CDN       0.036200
    180 H181         8.8320    -6.1280    -6.7430 hc         1 CDN       0.036200
    181 H182         8.1760    -5.7030    -8.3090 hc         1 CDN       0.036200
    182 H191        10.1050    -4.1540    -8.6940 hc         1 CDN       0.036700
    183 H192        10.7640    -4.5860    -7.1310 hc         1 CDN       0.036700
    184 H201        10.9520    -6.9710    -7.8700 hc         1 CDN       0.036700
    185 H202        10.2890    -6.5400    -9.4320 hc         1 CDN       0.036700
    186 H211        12.2240    -5.0000    -9.8250 hc         1 CDN       0.036200
    187 H212        12.8880    -5.4360    -8.2650 hc         1 CDN       0.036200
    188 H221        13.0600    -7.8230    -9.0100 hc         1 CDN       0.036700
    189 H222        12.3990    -7.3830   -10.5700 hc         1 CDN       0.036700
    190 H231        14.3420    -5.8510   -10.9550 hc         1 CDN       0.035700
    191 H232        15.0030    -6.2990    -9.3990 hc         1 CDN       0.035700
    192 H241        16.1010    -7.6090   -11.2180 hc         1 CDN       0.029367
    193 H242        15.1880    -8.6950   -10.1730 hc         1 CDN       0.029367
    194 H243        14.5360    -8.2260   -11.7410 hc         1 CDN       0.029367
    195 OA2         -0.1360    -1.4210     0.4940 os         1 CDN      -0.628400
@<TRIPOS>BOND
     1     1     3 1   
     2     1     4 1   
     3     1     5 1   
     4     1     6 1   
     5     2     8 1   
     6     2    77 1   
     7     3     9 1   
     8     4     7 1   
     9     7     8 1   
    10     7    78 1   
    11     7    79 1   
    12     8    41 1   
    13     8    80 1   
    14     9    10 1   
    15     9    81 1   
    16     9    82 1   
    17    10    11 1   
    18    10    20 1   
    19    10    83 1   
    20    11    12 1   
    21    11    84 1   
    22    11    85 1   
    23    12    14 1   
    24    13    14 1   
    25    13    86 1   
    26    14    15 1   
    27    14    87 1   
    28    15    16 1   
    29    15    88 1   
    30    15    89 1   
    31    16    17 1   
    32    16    90 1   
    33    16    91 1   
    34    17    18 1   
    35    17    92 1   
    36    17    93 1   
    37    18    19 1   
    38    18    94 1   
    39    18    95 1   
    40    19    96 1   
    41    19    97 1   
    42    19    98 1   
    43    20    22 1   
    44    21    22 1   
    45    21    99 1   
    46    22    23 1   
    47    22   100 1   
    48    23    24 1   
    49    23   101 1   
    50    23   102 1   
    51    24    25 1   
    52    24   103 1   
    53    24   104 1   
    54    25    26 1   
    55    25   105 1   
    56    25   106 1   
    57    26    27 1   
    58    26   107 1   
    59    26   108 1   
    60    27    28 1   
    61    27   109 1   
    62    27   110 1   
    63    28    29 1   
    64    28   111 1   
    65    28   112 1   
    66    29    30 1   
    67    29   113 1   
    68    29   114 1   
    69    30    31 1   
    70    30   115 1   
    71    30   116 1   
    72    31    32 1   
    73    31   117 1   
    74    31   118 1   
    75    32    33 1   
    76    32   119 1   
    77    32   120 1   
    78    33    34 1   
    79    33   121 1   
    80    33   122 1   
    81    34    35 1   
    82    34   123 1   
    83    34   124 1   
    84    35    36 1   
    85    35   125 1   
    86    35   126 1   
    87    36   127 1   
    88    36   128 1   
    89    36   129 1   
    90    37    38 1   
    91    37    39 1   
    92    37    40 1   
    93    37   195 1   
    94    38    42 1   
    95    41   130 1   
    96    41   131 1   
    97    41   195 1   
    98    42    43 1   
    99    42   132 1   
   100    42   133 1   
   101    43    44 1   
   102    43    60 1   
   103    43   134 1   
   104    44    45 1   
   105    44   135 1   
   106    44   136 1   
   107    45    47 1   
   108    46    47 1   
   109    46   137 1   
   110    47    48 1   
   111    47   138 1   
   112    48    49 1   
   113    48   139 1   
   114    48   140 1   
   115    49    50 1   
   116    49   141 1   
   117    49   142 1   
   118    50    51 1   
   119    50   143 1   
   120    50   144 1   
   121    51    52 1   
   122    51   145 1   
   123    51   146 1   
   124    52    53 1   
   125    52   147 1   
   126    52   148 1   
   127    53    54 1   
   128    53   149 1   
   129    53   150 1   
   130    54    55 1   
   131    54   151 1   
   132    54   152 1   
   133    55    56 1   
   134    55   153 1   
   135    55   154 1   
   136    56    57 1   
   137    56   155 1   
   138    56   156 1   
   139    57    58 1   
   140    57   157 1   
   141    57   158 1   
   142    58    59 1   
   143    58   159 1   
   144    58   160 1   
   145    59   161 1   
   146    59   162 1   
   147    59   163 1   
   148    60    62 1   
   149    61    62 1   
   150    61   164 1   
   151    62    63 1   
   152    62   165 1   
   153    63    64 1   
   154    63   166 1   
   155    63   167 1   
   156    64    65 1   
   157    64   168 1   
   158    64   169 1   
   159    65    66 1   
   160    65   170 1   
   161    65   171 1   
   162    66    67 1   
   163    66   172 1   
   164    66   173 1   
   165    67    68 1   
   166    67   174 1   
   167    67   175 1   
   168    68    69 1   
   169    68   176 1   
   170    68   177 1   
   171    69    70 1   
   172    69   178 1   
   173    69   179 1   
   174    70    71 1   
   175    70   180 1   
   176    70   181 1   
   177    71    72 1   
   178    71   182 1   
   179    71   183 1   
   180    72    73 1   
   181    72   184 1   
   182    72   185 1   
   183    73    74 1   
   184    73   186 1   
   185    73   187 1   
   186    74    75 1   
   187    74   188 1   
   188    74   189 1   
   189    75    76 1   
   190    75   190 1   
   191    75   191 1   
   192    76   192 1   
   193    76   193 1   
   194    76   194 1   
@<TRIPOS>SUBSTRUCTURE
     1 CDN         1 TEMP              0 ****  ****    0 ROOT
