@<TRIPOS>MOLECULE
CDO
   64    66     1     0     0
SMALL
No Charge or Current Charge


@<TRIPOS>ATOM
      1 C1           6.6890     0.9740    -0.5130 ca         1 CDO      -0.147000
      2 C2           6.7610     0.5780     0.8440 ca         1 CDO       0.251700
      3 N3           5.9510    -0.4140     1.3300 nb         1 CDO      -0.679000
      4 C4           5.0680    -1.0070     0.4900 ca         1 CDO       0.371900
      5 C5           4.9460    -0.6600    -0.8680 ca         1 CDO      -0.130300
      6 C6           5.7740     0.3530    -1.3790 ca         1 CDO      -0.068000
      7 C7           3.9370    -1.3660    -1.7560 c3         1 CDO       0.158300
      8 C8           7.7670     1.2360     1.8060 ce         1 CDO       0.579200
      9 N9           8.6470     2.1040     1.4790 n2         1 CDO      -0.873100
     10 N10          7.7670     0.8560     3.1100 nv         1 CDO      -1.041200
     11 N11          2.7430    -0.5490    -1.9580 ns         1 CDO      -0.510900
     12 C12          1.6980    -0.4650    -1.0610 c          1 CDO       0.602100
     13 C13          0.6350     0.5510    -1.6030 c5         1 CDO       0.063900
     14 O14          1.6780    -1.0810    -0.0020 o          1 CDO      -0.573100
     15 C15          1.0860     1.9890    -1.4130 c2         1 CDO      -0.241200
     16 C16          0.2710     2.6730    -0.6080 c2         1 CDO      -0.215200
     17 C17         -0.8830     1.8350    -0.1150 c5         1 CDO       0.137200
     18 N18         -0.6570     0.5620    -0.8490 n          1 CDO      -0.414800
     19 C19         -1.5450    -0.5400    -0.8470 c          1 CDO       0.562100
     20 C20         -2.8800    -0.4370    -0.0010 c3         1 CDO       0.141500
     21 O21         -1.2540    -1.5470    -1.4860 o          1 CDO      -0.577100
     22 N22         -3.4170    -1.7510     0.5210 n7         1 CDO      -0.864400
     23 C23         -4.0980    -2.6890    -0.4430 c3         1 CDO       0.014800
     24 C24         -4.4040    -4.1270     0.1230 c          1 CDO       0.717000
     25 O25         -5.5420    -4.5680     0.0170 o          1 CDO      -0.734500
     26 O26         -3.4970    -4.7400     0.6740 o          1 CDO      -0.734500
     27 C27         -3.9580     0.4160    -0.7480 c3         1 CDO      -0.071400
     28 C28         -4.9010     1.2880     0.1430 c6         1 CDO      -0.048700
     29 C29         -5.7720     2.2260    -0.7420 c6         1 CDO      -0.075900
     30 C30         -6.7030     3.1230     0.1090 c6         1 CDO      -0.071400
     31 C31         -7.6020     2.2720     1.0360 c6         1 CDO      -0.074400
     32 C32         -6.7500     1.3430     1.9320 c6         1 CDO      -0.071400
     33 C33         -5.8110     0.4470     1.0860 c6         1 CDO      -0.075900
     34 H1           7.3330     1.7600    -0.8980 ha         1 CDO       0.122000
     35 H4           4.4430    -1.7870     0.9220 h4         1 CDO       0.034100
     36 H6           5.7100     0.6530    -2.4230 ha         1 CDO       0.116000
     37 H71          4.3920    -1.5740    -2.7340 h1         1 CDO       0.062200
     38 H72          3.6490    -2.3290    -1.3130 h1         1 CDO       0.062200
     39 HN9          8.5680     2.2990     0.4710 hn         1 CDO       0.382400
     40 H101         8.6500     0.9840     3.5890 hn         1 CDO       0.489000
     41 H102         7.2700    -0.0110     3.2940 hn         1 CDO       0.489000
     42 H11          2.6750     0.0120    -2.8000 hn         1 CDO       0.315500
     43 H13          0.4570     0.3270    -2.6630 h1         1 CDO       0.074700
     44 H15          1.9780     2.4200    -1.8740 ha         1 CDO       0.186000
     45 H16          0.4210     3.7210    -0.3420 ha         1 CDO       0.190000
     46 H171        -0.8400     1.6840     0.9720 h1         1 CDO       0.060200
     47 H172        -1.8460     2.2950    -0.3680 h1         1 CDO       0.060200
     48 H20         -2.5890     0.1460     0.8820 h1         1 CDO       0.046700
     49 H22         -2.6300    -2.2690     0.9420 hn         1 CDO       0.463000
     50 H231        -5.0510    -2.2590    -0.7760 h1         1 CDO       0.020700
     51 H232        -3.4800    -2.8340    -1.3380 h1         1 CDO       0.020700
     52 H271        -3.4280     1.0940    -1.4270 hc         1 CDO       0.044200
     53 H272        -4.5480    -0.2170    -1.4190 hc         1 CDO       0.044200
     54 H28         -4.2460     1.9170     0.7640 hc         1 CDO       0.027700
     55 H291        -5.1260     2.8620    -1.3640 hc         1 CDO       0.050450
     56 H292        -6.3770     1.6270    -1.4370 hc         1 CDO       0.050450
     57 H301        -6.1000     3.8170     0.7120 hc         1 CDO       0.029700
     58 H302        -7.3280     3.7430    -0.5490 hc         1 CDO       0.029700
     59 H311        -8.2220     2.9290     1.6620 hc         1 CDO       0.031200
     60 H312        -8.2950     1.6710     0.4310 hc         1 CDO       0.031200
     61 H321        -6.1530     1.9490     2.6280 hc         1 CDO       0.029700
     62 H322        -7.4070     0.7160     2.5490 hc         1 CDO       0.029700
     63 H331        -6.4090    -0.2610     0.4950 hc         1 CDO       0.050450
     64 H332        -5.1980    -0.1560     1.7680 hc         1 CDO       0.050450
@<TRIPOS>BOND
     1     1     2 ar  
     2     1     6 ar  
     3     1    34 1   
     4     2     3 ar  
     5     2     8 1   
     6     3     4 ar  
     7     4     5 ar  
     8     4    35 1   
     9     5     6 ar  
    10     5     7 1   
    11     6    36 1   
    12     7    11 1   
    13     7    37 1   
    14     7    38 1   
    15     8     9 2   
    16     8    10 1   
    17     9    39 1   
    18    10    40 1   
    19    10    41 1   
    20    11    12 1   
    21    11    42 1   
    22    12    13 1   
    23    12    14 2   
    24    13    15 1   
    25    13    18 1   
    26    13    43 1   
    27    15    16 2   
    28    15    44 1   
    29    16    17 1   
    30    16    45 1   
    31    17    18 1   
    32    17    46 1   
    33    17    47 1   
    34    18    19 1   
    35    19    20 1   
    36    19    21 2   
    37    20    22 1   
    38    20    27 1   
    39    20    48 1   
    40    22    23 1   
    41    22    49 1   
    42    23    24 1   
    43    23    50 1   
    44    23    51 1   
    45    24    25 1   
    46    24    26 1   
    47    27    28 1   
    48    27    52 1   
    49    27    53 1   
    50    28    29 1   
    51    28    33 1   
    52    28    54 1   
    53    29    30 1   
    54    29    55 1   
    55    29    56 1   
    56    30    31 1   
    57    30    57 1   
    58    30    58 1   
    59    31    32 1   
    60    31    59 1   
    61    31    60 1   
    62    32    33 1   
    63    32    61 1   
    64    32    62 1   
    65    33    63 1   
    66    33    64 1   
@<TRIPOS>SUBSTRUCTURE
     1 CDO         1 TEMP              0 ****  ****    0 ROOT
