@<TRIPOS>MOLECULE
CDO
   64    66     1     0     0
SMALL
bcc


@<TRIPOS>ATOM
      1 C1           6.0220     1.0420    -0.4080 ca         1 CDO      -0.230300
      2 C2           6.4040     0.5180     0.8220 ca         1 CDO       0.317000
      3 N3           5.8880    -0.6110     1.2930 nb         1 CDO      -0.679000
      4 C4           4.9980    -1.2650     0.5630 ca         1 CDO       0.437200
      5 C5           4.5640    -0.8390    -0.6860 ca         1 CDO      -0.195600
      6 C6           5.0920     0.3520    -1.1650 ca         1 CDO      -0.086000
      7 C7           3.5630    -1.6370    -1.4780 c3         1 CDO       0.158300
      8 C8           7.4200     1.2030     1.6900 ce         1 CDO       0.579200
      9 N9           8.2210     2.1190     1.3000 n2         1 CDO      -0.873100
     10 N10          7.4070     0.7850     2.9770 nv         1 CDO      -0.930800
     11 N11          2.4520    -0.8360    -1.9330 ns         1 CDO      -0.577900
     12 C12          1.5710    -0.3040    -1.0730 c          1 CDO       0.669100
     13 C13          0.5590     0.6560    -1.7040 c5         1 CDO       0.063900
     14 O14          1.6080    -0.4980     0.1280 o          1 CDO      -0.573100
     15 C15          1.0540     2.0650    -1.5440 c2         1 CDO      -0.191200
     16 C16          0.2760     2.7520    -0.7210 c2         1 CDO      -0.165200
     17 C17         -0.8690     1.9280    -0.2310 c5         1 CDO       0.137200
     18 N18         -0.6800     0.6790    -0.9590 n          1 CDO      -0.481800
     19 C19         -1.4160    -0.4480    -0.8470 c          1 CDO       0.629100
     20 C20         -2.6850    -0.3530     0.0080 c3         1 CDO       0.141500
     21 O21         -1.0620    -1.4760    -1.4070 o          1 CDO      -0.577100
     22 N22         -3.1640    -1.6350     0.4630 n7         1 CDO      -0.809200
     23 C23         -3.8590    -2.4880    -0.4780 c3         1 CDO       0.014800
     24 C24         -3.7360    -3.9810    -0.1160 c          1 CDO       0.927600
     25 O25         -4.4700    -4.7510    -0.7670 o          1 CDO      -0.839800
     26 O26         -2.9130    -4.3020     0.7630 o          1 CDO      -0.839800
     27 C27         -3.7540     0.4760    -0.7310 c3         1 CDO      -0.071400
     28 C28         -4.6780     1.2940     0.1710 c6         1 CDO      -0.048700
     29 C29         -5.5480     2.2240    -0.6760 c6         1 CDO      -0.075900
     30 C30         -6.4860     3.0710     0.1760 c6         1 CDO      -0.071400
     31 C31         -7.3540     2.1990     1.0780 c6         1 CDO      -0.074400
     32 C32         -6.4930     1.2760     1.9340 c6         1 CDO      -0.071400
     33 C33         -5.5560     0.4300     1.0770 c6         1 CDO      -0.075900
     34 H1           6.4200     1.9780    -0.7740 ha         1 CDO       0.140000
     35 H4           4.6010    -2.1790     0.9930 h4         1 CDO       0.034100
     36 H6           4.7800     0.7480    -2.1240 ha         1 CDO       0.134000
     37 H71          4.0430    -2.0530    -2.3630 h1         1 CDO       0.062200
     38 H72          3.2070    -2.4810    -0.8840 h1         1 CDO       0.062200
     39 HN9          8.1010     2.3270     0.3170 hn         1 CDO       0.382400
     40 H101         8.1730     1.0530     3.5700 hn         1 CDO       0.433800
     41 H102         6.9350    -0.0750     3.1960 hn         1 CDO       0.433800
     42 H11          2.3550    -0.6640    -2.9200 hn         1 CDO       0.315500
     43 H13          0.3950     0.3940    -2.7560 h1         1 CDO       0.074700
     44 H15          1.9460     2.4240    -2.0360 ha         1 CDO       0.136000
     45 H16          0.4170     3.7800    -0.4180 ha         1 CDO       0.140000
     46 H171        -0.8290     1.7860     0.8550 h1         1 CDO       0.060200
     47 H172        -1.8310     2.3960    -0.4580 h1         1 CDO       0.060200
     48 H20         -2.4020     0.2110     0.9080 h1         1 CDO       0.046700
     49 H22         -2.4100    -2.1750     0.8680 hn         1 CDO       0.407800
     50 H231        -4.9250    -2.2380    -0.5060 h1         1 CDO       0.020700
     51 H232        -3.5030    -2.3860    -1.5120 h1         1 CDO       0.020700
     52 H271        -3.2610     1.1700    -1.4190 hc         1 CDO       0.044200
     53 H272        -4.3500    -0.1790    -1.3730 hc         1 CDO       0.044200
     54 H28         -4.0430     1.9220     0.8140 hc         1 CDO       0.027700
     55 H291        -4.9100     2.8690    -1.2880 hc         1 CDO       0.050450
     56 H292        -6.1380     1.6190    -1.3750 hc         1 CDO       0.050450
     57 H301        -5.8950     3.7560     0.7950 hc         1 CDO       0.029700
     58 H302        -7.1130     3.6970    -0.4650 hc         1 CDO       0.029700
     59 H311        -7.9900     2.8230     1.7110 hc         1 CDO       0.031200
     60 H312        -8.0270     1.5960     0.4590 hc         1 CDO       0.031200
     61 H321        -5.9020     1.8780     2.6320 hc         1 CDO       0.029700
     62 H322        -7.1260     0.6270     2.5460 hc         1 CDO       0.029700
     63 H331        -6.1480    -0.2470     0.4490 hc         1 CDO       0.050450
     64 H332        -4.9310    -0.2070     1.7040 hc         1 CDO       0.050450
@<TRIPOS>BOND
     1     1     2 ar  
     2     1     6 ar  
     3     1    34 1   
     4     2     3 ar  
     5     2     8 1   
     6     3     4 ar  
     7     4     5 ar  
     8     4    35 1   
     9     5     6 ar  
    10     5     7 1   
    11     6    36 1   
    12     7    11 1   
    13     7    37 1   
    14     7    38 1   
    15     8     9 2   
    16     8    10 1   
    17     9    39 1   
    18    10    40 1   
    19    10    41 1   
    20    11    12 1   
    21    11    42 1   
    22    12    13 1   
    23    12    14 2   
    24    13    15 1   
    25    13    18 1   
    26    13    43 1   
    27    15    16 2   
    28    15    44 1   
    29    16    17 1   
    30    16    45 1   
    31    17    18 1   
    32    17    46 1   
    33    17    47 1   
    34    18    19 1   
    35    19    20 1   
    36    19    21 2   
    37    20    22 1   
    38    20    27 1   
    39    20    48 1   
    40    22    23 1   
    41    22    49 1   
    42    23    24 1   
    43    23    50 1   
    44    23    51 1   
    45    24    25 1   
    46    24    26 1   
    47    27    28 1   
    48    27    52 1   
    49    27    53 1   
    50    28    29 1   
    51    28    33 1   
    52    28    54 1   
    53    29    30 1   
    54    29    55 1   
    55    29    56 1   
    56    30    31 1   
    57    30    57 1   
    58    30    58 1   
    59    31    32 1   
    60    31    59 1   
    61    31    60 1   
    62    32    33 1   
    63    32    61 1   
    64    32    62 1   
    65    33    63 1   
    66    33    64 1   
@<TRIPOS>SUBSTRUCTURE
     1 CDO         1 TEMP              0 ****  ****    0 ROOT
