@<TRIPOS>MOLECULE
CDQ
   38    41     1     0     0
SMALL
No Charge or Current Charge


@<TRIPOS>ATOM
      1 C1           3.8320    -1.2750    -0.8270 ca         1 CDQ       0.079000
      2 C2           2.5900    -1.1910    -1.4960 ca         1 CDQ      -0.072000
      3 C3           1.6490    -0.2050    -1.1290 ca         1 CDQ      -0.104000
      4 C4           1.9710     0.6490    -0.0630 ca         1 CDQ      -0.020000
      5 C5           3.2020     0.6000     0.5590 ca         1 CDQ      -0.153300
      6 C6           4.1540    -0.3670     0.2030 ca         1 CDQ      -0.070000
      7 C7           3.3210     1.7270     1.5680 c5         1 CDQ      -0.117100
      8 C8           1.9540     2.4660     1.4480 c          1 CDQ       0.562000
      9 O9           1.5290     3.4150     2.0960 o          1 CDQ      -0.544000
     10 N10          1.2630     1.7670     0.4370 n          1 CDQ      -0.203400
     11 C11         -0.1450     2.0540     0.0950 c3         1 CDQ       0.155300
     12 C12         -1.1170     0.9260     0.4620 ca         1 CDQ      -0.110300
     13 C13         -1.0170     0.3170     1.7320 ca         1 CDQ      -0.106000
     14 C14         -1.8860    -0.7200     2.1030 ca         1 CDQ      -0.142000
     15 C15         -2.8730    -1.1580     1.2110 ca         1 CDQ       0.041100
     16 C16         -2.9810    -0.5680    -0.0730 ca         1 CDQ       0.062100
     17 C17         -2.1160     0.4810    -0.4470 ca         1 CDQ      -0.095600
     18 C18         -2.2730     1.1070    -1.8070 c          1 CDQ       0.722600
     19 O19         -2.8400     2.1880    -1.8780 o          1 CDQ      -0.708500
     20 O20         -1.7420     0.5550    -2.7600 o          1 CDQ      -0.708500
     21 O21         -3.9440    -1.0120    -0.9620 os         1 CDQ      -0.296100
     22 C22         -4.5810    -2.2770    -0.6840 c6         1 CDQ       0.118600
     23 C23         -4.9260    -2.3690     0.8170 c6         1 CDQ       0.119600
     24 O24         -3.7340    -2.1640     1.6060 os         1 CDQ      -0.348100
     25 Cl25         4.9990    -2.5010    -1.3040 cl         1 CDQ      -0.238000
     26 H2           2.3630    -1.8820    -2.3040 ha         1 CDQ       0.132000
     27 H3           0.7010    -0.1220    -1.6550 ha         1 CDQ       0.194000
     28 H6           5.1210    -0.4080     0.6970 ha         1 CDQ       0.117000
     29 H7           3.4620     1.3990     2.6030 hc         1 CDQ       0.079200
     30 H7A          4.1250     2.4350     1.3430 hc         1 CDQ       0.079200
     31 H11         -0.4670     2.9710     0.6040 h1         1 CDQ       0.082700
     32 H11A        -0.1800     2.2630    -0.9800 h1         1 CDQ       0.082700
     33 H13         -0.2610     0.6510     2.4400 ha         1 CDQ       0.101000
     34 H14         -1.8010    -1.1760     3.0860 ha         1 CDQ       0.105000
     35 H22         -5.4870    -2.3700    -1.2980 h1         1 CDQ       0.053700
     36 H22A        -3.8920    -3.0900    -0.9540 h1         1 CDQ       0.053700
     37 H23         -5.6610    -1.5930     1.0730 h1         1 CDQ       0.050200
     38 H23A        -5.3580    -3.3500     1.0580 h1         1 CDQ       0.050200
@<TRIPOS>BOND
     1     1     2 ar  
     2     1     6 ar  
     3     1    25 1   
     4     2     3 ar  
     5     2    26 1   
     6     3     4 ar  
     7     3    27 1   
     8     4     5 ar  
     9     4    10 1   
    10     5     6 ar  
    11     5     7 1   
    12     6    28 1   
    13     7     8 1   
    14     7    29 1   
    15     7    30 1   
    16     8     9 2   
    17     8    10 1   
    18    10    11 1   
    19    11    12 1   
    20    11    31 1   
    21    11    32 1   
    22    12    13 ar  
    23    12    17 ar  
    24    13    14 ar  
    25    13    33 1   
    26    14    15 ar  
    27    14    34 1   
    28    15    16 ar  
    29    15    24 1   
    30    16    17 ar  
    31    16    21 1   
    32    17    18 1   
    33    18    19 1   
    34    18    20 1   
    35    21    22 1   
    36    22    23 1   
    37    22    35 1   
    38    22    36 1   
    39    23    24 1   
    40    23    37 1   
    41    23    38 1   
@<TRIPOS>SUBSTRUCTURE
     1 CDQ         1 TEMP              0 ****  ****    0 ROOT
