@<TRIPOS>MOLECULE
CDQ
   38    41     1     0     0
SMALL
bcc


@<TRIPOS>ATOM
      1 C1           3.8060    -1.1630    -0.9430 ca         1 CDQ      -0.012600
      2 C2           2.5620    -1.1050    -1.5480 ca         1 CDQ      -0.090000
      3 C3           1.6140    -0.1760    -1.1240 ca         1 CDQ      -0.122000
      4 C4           1.9640     0.6700    -0.0890 ca         1 CDQ       0.072600
      5 C5           3.2190     0.6120     0.5170 ca         1 CDQ      -0.153300
      6 C6           4.1560    -0.3060     0.0970 ca         1 CDQ      -0.088000
      7 C7           3.2720     1.6580     1.5800 c5         1 CDQ      -0.117100
      8 C8           1.9000     2.3030     1.5020 c          1 CDQ       0.704500
      9 O9           1.4770     3.2070     2.1910 o          1 CDQ      -0.619500
     10 N10          1.2060     1.6760     0.5040 n          1 CDQ      -0.363000
     11 C11         -0.1510     1.9880     0.1170 c3         1 CDQ       0.155300
     12 C12         -1.1230     0.8940     0.4930 ca         1 CDQ      -0.110300
     13 C13         -1.0890     0.3520     1.7770 ca         1 CDQ      -0.124000
     14 C14         -1.9820    -0.6320     2.1580 ca         1 CDQ      -0.160000
     15 C15         -2.9280    -1.0980     1.2530 ca         1 CDQ       0.041100
     16 C16         -2.9580    -0.5690    -0.0370 ca         1 CDQ       0.062100
     17 C17         -2.0630     0.4260    -0.4200 ca         1 CDQ      -0.095600
     18 C18         -2.1470     0.9600    -1.8450 c          1 CDQ       0.933200
     19 O19         -2.8800     1.9460    -2.0170 o          1 CDQ      -0.813800
     20 O20         -1.4580     0.3600    -2.6920 o          1 CDQ      -0.813800
     21 O21         -3.8520    -1.0040    -0.9630 os         1 CDQ      -0.272900
     22 C22         -4.4570    -2.2450    -0.6430 c6         1 CDQ       0.095400
     23 C23         -4.9080    -2.2460     0.7980 c6         1 CDQ       0.096400
     24 O24         -3.7950    -2.0580     1.6590 os         1 CDQ      -0.324900
     25 CL25         4.9660    -2.3340    -1.4940 cl         1 CDQ      -0.146400
     26 H2           2.3190    -1.7830    -2.3550 ha         1 CDQ       0.150000
     27 H3           0.6430    -0.1350    -1.6030 ha         1 CDQ       0.212000
     28 H6           5.1340    -0.3570     0.5580 ha         1 CDQ       0.135000
     29 H7           3.4370     1.2520     2.5810 hc         1 CDQ       0.079200
     30 H7A          4.0480     2.4080     1.4090 hc         1 CDQ       0.079200
     31 H11         -0.4190     2.9260     0.6040 h1         1 CDQ       0.082700
     32 H11A        -0.1640     2.1800    -0.9570 h1         1 CDQ       0.082700
     33 H13         -0.3650     0.7080     2.5000 ha         1 CDQ       0.119000
     34 H14         -1.9580    -1.0420     3.1600 ha         1 CDQ       0.123000
     35 H22         -5.3100    -2.3720    -1.3090 h1         1 CDQ       0.053700
     36 H22A        -3.7540    -3.0660    -0.8210 h1         1 CDQ       0.053700
     37 H23         -5.6510    -1.4580     0.9650 h1         1 CDQ       0.050200
     38 H23A        -5.3580    -3.2030     1.0580 h1         1 CDQ       0.050200
@<TRIPOS>BOND
     1     1     2 ar  
     2     1     6 ar  
     3     1    25 1   
     4     2     3 ar  
     5     2    26 1   
     6     3     4 ar  
     7     3    27 1   
     8     4     5 ar  
     9     4    10 1   
    10     5     6 ar  
    11     5     7 1   
    12     6    28 1   
    13     7     8 1   
    14     7    29 1   
    15     7    30 1   
    16     8     9 2   
    17     8    10 1   
    18    10    11 1   
    19    11    12 1   
    20    11    31 1   
    21    11    32 1   
    22    12    13 ar  
    23    12    17 ar  
    24    13    14 ar  
    25    13    33 1   
    26    14    15 ar  
    27    14    34 1   
    28    15    16 ar  
    29    15    24 1   
    30    16    17 ar  
    31    16    21 1   
    32    17    18 1   
    33    18    19 1   
    34    18    20 1   
    35    21    22 1   
    36    22    23 1   
    37    22    35 1   
    38    22    36 1   
    39    23    24 1   
    40    23    37 1   
    41    23    38 1   
@<TRIPOS>SUBSTRUCTURE
     1 CDQ         1 TEMP              0 ****  ****    0 ROOT
