@<TRIPOS>MOLECULE
CDR
   21    21     1     0     0
SMALL
abcg2


@<TRIPOS>ATOM
      1 O1           8.3670    -2.6070     3.7150 oh         1 CDR      -0.640000
      2 C1           7.7900    -2.4720     4.9650 c6         1 CDR       0.397300
      3 C2           7.0840    -3.7610     5.3380 c6         1 CDR      -0.104400
      4 C3           6.5570    -3.6670     6.7640 c6         1 CDR      -0.077400
      5 C4           7.6590    -3.2510     7.7250 c6         1 CDR       0.139300
      6 O4           7.0780    -3.0560     8.9950 oh         1 CDR      -0.717000
      7 C5           8.3420    -1.9750     7.2100 c6         1 CDR       0.151300
      8 O5           8.8160    -2.1900     5.8930 os         1 CDR      -0.494000
      9 C6           9.5220    -1.5450     8.0580 c3         1 CDR      -0.092100
     10 HO1          8.6380    -1.7390     3.3960 ho         1 CDR       0.456000
     11 H1           7.0620    -1.6410     4.9840 h2         1 CDR       0.013700
     12 H2           6.2630    -3.9490     4.6420 hc         1 CDR       0.064200
     13 H22          7.7870    -4.5940     5.2450 hc         1 CDR       0.064200
     14 H3           5.7500    -2.9270     6.8110 hc         1 CDR       0.056700
     15 H32          6.1290    -4.6220     7.0740 hc         1 CDR       0.056700
     16 H4           8.4200    -4.0460     7.7590 h1         1 CDR       0.043700
     17 HO4          7.7780    -3.0120     9.6530 ho         1 CDR       0.505000
     18 H5           7.5890    -1.1690     7.2110 h1         1 CDR       0.041700
     19 H61          9.9970    -0.6560     7.6410 hc         1 CDR       0.045367
     20 H62          9.2050    -1.2930     9.0700 hc         1 CDR       0.045367
     21 H63         10.2740    -2.3350     8.1230 hc         1 CDR       0.045367
@<TRIPOS>BOND
     1     1     2 1   
     2     1    10 1   
     3     2     3 1   
     4     2     8 1   
     5     2    11 1   
     6     3     4 1   
     7     3    12 1   
     8     3    13 1   
     9     4     5 1   
    10     4    14 1   
    11     4    15 1   
    12     5     6 1   
    13     5     7 1   
    14     5    16 1   
    15     6    17 1   
    16     7     8 1   
    17     7     9 1   
    18     7    18 1   
    19     9    19 1   
    20     9    20 1   
    21     9    21 1   
@<TRIPOS>SUBSTRUCTURE
     1 CDR         1 TEMP              0 ****  ****    0 ROOT
