@<TRIPOS>MOLECULE
CDR
   21    21     1     0     0
SMALL
No Charge or Current Charge


@<TRIPOS>ATOM
      1 O1           8.2910    -2.4710     3.6660 oh         1 CDR      -0.640000
      2 C1           7.6650    -2.3910     4.9230 c6         1 CDR       0.397300
      3 C2           7.0220    -3.7450     5.3020 c6         1 CDR      -0.104400
      4 C3           6.5220    -3.7140     6.7700 c6         1 CDR      -0.077400
      5 C4           7.6560    -3.2610     7.7260 c6         1 CDR       0.139300
      6 O4           7.1330    -3.1240     9.0590 oh         1 CDR      -0.717000
      7 C5           8.2830    -1.9240     7.2010 c6         1 CDR       0.151300
      8 O5           8.7220    -2.0830     5.8330 os         1 CDR      -0.494000
      9 C6           9.5250    -1.4720     8.0110 c3         1 CDR      -0.092100
     10 HO1          9.2040    -2.1770     3.8660 ho         1 CDR       0.456000
     11 H1           6.9160    -1.5860     4.9280 h2         1 CDR       0.013700
     12 H2           6.1870    -3.9650     4.6240 hc         1 CDR       0.064200
     13 H22          7.7550    -4.5530     5.1760 hc         1 CDR       0.064200
     14 H3           5.6700    -3.0250     6.8520 hc         1 CDR       0.056700
     15 H32          6.1540    -4.7070     7.0630 hc         1 CDR       0.056700
     16 H4           8.4400    -4.0340     7.7120 h1         1 CDR       0.043700
     17 HO4          7.9050    -3.0950     9.6700 ho         1 CDR       0.505000
     18 H5           7.5310    -1.1220     7.2380 h1         1 CDR       0.041700
     19 H61          9.9680    -0.5680     7.5760 hc         1 CDR       0.045367
     20 H62          9.2610    -1.2380     9.0490 hc         1 CDR       0.045367
     21 H63         10.2970    -2.2510     8.0260 hc         1 CDR       0.045367
@<TRIPOS>BOND
     1     1     2 1   
     2     1    10 1   
     3     2     3 1   
     4     2     8 1   
     5     2    11 1   
     6     3     4 1   
     7     3    12 1   
     8     3    13 1   
     9     4     5 1   
    10     4    14 1   
    11     4    15 1   
    12     5     6 1   
    13     5     7 1   
    14     5    16 1   
    15     6    17 1   
    16     7     8 1   
    17     7     9 1   
    18     7    18 1   
    19     9    19 1   
    20     9    20 1   
    21     9    21 1   
@<TRIPOS>SUBSTRUCTURE
     1 CDR         1 TEMP              0 ****  ****    0 ROOT
