@<TRIPOS>MOLECULE
CDT
   23    22     1     0     0
SMALL
bcc


@<TRIPOS>ATOM
      1 NT           2.5350    -0.8270    -2.4870 nt         1 CDT      -0.665000
      2 CT           1.6110     0.0780    -2.0430 c          1 CDT       0.770100
      3 OT           1.4830     1.1830    -2.5590 o          1 CDT      -0.649100
      4 N            0.8630    -0.3400    -0.9880 ns         1 CDT      -0.536900
      5 CA          -0.3800     0.3200    -0.6630 c3         1 CDT      -0.044300
      6 CB          -0.8350    -0.1100     0.7320 c3         1 CDT      -0.062400
      7 CG           0.1610     0.2720     1.8160 c3         1 CDT       0.035700
      8 SD          -0.4470    -0.2840     3.4340 ss         1 CDT      -0.379200
      9 CE           0.9220     0.2530     4.4810 c3         1 CDT      -0.006000
     10 C           -1.5020     0.0660    -1.7060 c          1 CDT       0.921600
     11 O           -2.5620     0.6930    -1.5050 o          1 CDT      -0.824800
     12 OXT         -1.2590    -0.7240    -2.6340 o          1 CDT      -0.824800
     13 HT1          3.2810    -0.4590    -3.0530 hn         1 CDT       0.277000
     14 HT2          2.8080    -1.5890    -1.8880 hn         1 CDT       0.277000
     15 HN1          0.8800    -1.3310    -0.7950 hn         1 CDT       0.279500
     16 HA          -0.1920     1.3970    -0.6380 h1         1 CDT       0.065700
     17 HB1         -1.0030    -1.1930     0.7480 hc         1 CDT       0.060200
     18 HB2         -1.7980     0.3590     0.9360 hc         1 CDT       0.060200
     19 HG1          0.2970     1.3560     1.8380 h1         1 CDT       0.051700
     20 HG2          1.1350    -0.1830     1.6310 h1         1 CDT       0.051700
     21 HE1          0.6970    -0.0430     5.5040 h1         1 CDT       0.048033
     22 HE2          1.8560    -0.2200     4.1790 h1         1 CDT       0.048033
     23 HE3          1.0410     1.3360     4.4510 h1         1 CDT       0.048033
@<TRIPOS>BOND
     1     1     2 1   
     2     1    13 1   
     3     1    14 1   
     4     2     3 2   
     5     2     4 1   
     6     4     5 1   
     7     4    15 1   
     8     5     6 1   
     9     5    10 1   
    10     5    16 1   
    11     6     7 1   
    12     6    17 1   
    13     6    18 1   
    14     7     8 1   
    15     7    19 1   
    16     7    20 1   
    17     8     9 1   
    18     9    21 1   
    19     9    22 1   
    20     9    23 1   
    21    10    11 1   
    22    10    12 1   
@<TRIPOS>SUBSTRUCTURE
     1 CDT         1 TEMP              0 ****  ****    0 ROOT
