@<TRIPOS>MOLECULE
CDT
   23    22     1     0     0
SMALL
No Charge or Current Charge


@<TRIPOS>ATOM
      1 NT           2.7630    -0.5740    -1.9390 nt         1 CDT      -0.598000
      2 CT           1.8180     0.1880    -1.3650 c          1 CDT       0.636100
      3 OT           2.0700     1.2800    -0.8950 o          1 CDT      -0.649100
      4 N            0.5780    -0.3910    -1.3750 ns         1 CDT      -0.469900
      5 CA          -0.6560     0.2110    -0.8100 c3         1 CDT      -0.044300
      6 CB          -0.9070    -0.2270     0.6560 c3         1 CDT      -0.062400
      7 CG           0.1890     0.2170     1.6450 c3         1 CDT       0.083600
      8 SD          -0.2620    -0.2690     3.3730 ss         1 CDT      -0.475000
      9 CE           1.2130     0.3830     4.2780 c3         1 CDT       0.041900
     10 C           -1.8840    -0.1150    -1.7150 c          1 CDT       0.711000
     11 O           -2.5290     0.8190    -2.1690 o          1 CDT      -0.719500
     12 OXT         -2.1080    -1.2850    -1.9970 o          1 CDT      -0.719500
     13 HT1          3.7100    -0.2310    -1.9810 hn         1 CDT       0.277000
     14 HT2          2.5270    -1.4760    -2.3210 hn         1 CDT       0.277000
     15 HN1          0.5010    -1.2990    -1.8160 hn         1 CDT       0.279500
     16 HA          -0.5410     1.3030    -0.8250 h1         1 CDT       0.065700
     17 HB1         -1.0100    -1.3180     0.6990 hc         1 CDT       0.060200
     18 HB2         -1.8650     0.1950     0.9860 hc         1 CDT       0.060200
     19 HG1          0.3110     1.3080     1.5990 h1         1 CDT       0.051700
     20 HG2          1.1450    -0.2530     1.3820 h1         1 CDT       0.051700
     21 HE1          1.1120     0.1760     5.3500 h1         1 CDT       0.048033
     22 HE2          2.1240    -0.1010     3.9030 h1         1 CDT       0.048033
     23 HE3          1.2930     1.4680     4.1270 h1         1 CDT       0.048033
@<TRIPOS>BOND
     1     1     2 1   
     2     1    13 1   
     3     1    14 1   
     4     2     3 2   
     5     2     4 1   
     6     4     5 1   
     7     4    15 1   
     8     5     6 1   
     9     5    10 1   
    10     5    16 1   
    11     6     7 1   
    12     6    17 1   
    13     6    18 1   
    14     7     8 1   
    15     7    19 1   
    16     7    20 1   
    17     8     9 1   
    18     9    21 1   
    19     9    22 1   
    20     9    23 1   
    21    10    11 1   
    22    10    12 1   
@<TRIPOS>SUBSTRUCTURE
     1 CDT         1 TEMP              0 ****  ****    0 ROOT
