@<TRIPOS>MOLECULE
CDU
   54    54     1     0     0
SMALL
abcg2


@<TRIPOS>ATOM
      1 C1           1.0320     1.1880    -7.1330 c6         1 CDU      -0.071400
      2 C2          -0.1270     0.9120    -8.0850 c6         1 CDU      -0.077400
      3 C3          -0.7730    -0.4350    -7.7790 c6         1 CDU      -0.071400
      4 C4          -1.2210    -0.5230    -6.3230 c6         1 CDU      -0.091900
      5 C5          -0.0620    -0.2470    -5.3680 c6         1 CDU       0.117700
      6 C6           0.5800     1.1060    -5.6780 c6         1 CDU      -0.091900
      7 N1          -0.5290    -0.3380    -3.9990 ns         1 CDU      -0.512900
      8 C8           0.3050    -0.6210    -2.9600 c          1 CDU       0.643100
      9 O            1.4580    -1.0110    -3.1170 o          1 CDU      -0.641100
     10 N2          -0.2450    -0.4380    -1.7280 ns         1 CDU      -0.517900
     11 C11          0.4090    -0.8800    -0.5160 c3         1 CDU       0.109000
     12 C12         -0.1800    -0.1680     0.6920 c3         1 CDU      -0.092400
     13 C13          0.4210    -0.6480     2.0070 c3         1 CDU      -0.072400
     14 C14         -0.1760     0.0630     3.2150 c3         1 CDU      -0.074400
     15 C15          0.3890    -0.4170     4.5460 c3         1 CDU      -0.074400
     16 C16         -0.2300     0.2950     5.7420 c3         1 CDU      -0.074400
     17 C17          0.3100    -0.1840     7.0840 c3         1 CDU      -0.074400
     18 C18         -0.3250     0.5280     8.2720 c3         1 CDU      -0.075400
     19 C19          0.2030     0.0500     9.6190 c3         1 CDU      -0.074400
     20 C20         -0.4430     0.7670    10.7960 c3         1 CDU      -0.088100
     21 HC11         1.8270     0.4550    -7.3090 hc         1 CDU       0.042700
     22 HC12         1.4660     2.1700    -7.3340 hc         1 CDU       0.042700
     23 HC21         0.2170     0.9390    -9.1220 hc         1 CDU       0.039200
     24 HC22        -0.8750     1.7060    -7.9820 hc         1 CDU       0.039200
     25 HC31        -0.0510    -1.2340    -7.9820 hc         1 CDU       0.042700
     26 HC32        -1.6250    -0.6110    -8.4400 hc         1 CDU       0.042700
     27 HC41        -1.6440    -1.5080    -6.1120 hc         1 CDU       0.043950
     28 HC42        -2.0160     0.2110    -6.1430 hc         1 CDU       0.043950
     29 HC51         0.6890    -1.0290    -5.5090 h1         1 CDU       0.082700
     30 HC61        -0.1540     1.8950    -5.4790 hc         1 CDU       0.043950
     31 HC62         1.4220     1.2760    -5.0030 hc         1 CDU       0.043950
     32 HN1         -1.3870     0.1500    -3.7920 hn         1 CDU       0.294500
     33 HN2         -1.2460    -0.3290    -1.6700 hn         1 CDU       0.295500
     34 H111         1.4740    -0.6620    -0.5900 h1         1 CDU       0.051200
     35 H112         0.3150    -1.9650    -0.3850 h1         1 CDU       0.051200
     36 H121        -1.2640    -0.3270     0.7160 hc         1 CDU       0.041700
     37 H122        -0.0270     0.9100     0.5860 hc         1 CDU       0.041700
     38 H131         1.5060    -0.4950     1.9920 hc         1 CDU       0.041700
     39 H132         0.2670    -1.7270     2.1060 hc         1 CDU       0.041700
     40 H141        -1.2630    -0.0770     3.2130 hc         1 CDU       0.037200
     41 H142        -0.0110     1.1420     3.1190 hc         1 CDU       0.037200
     42 H151         1.4750    -0.2710     4.5570 hc         1 CDU       0.038200
     43 H152         0.2280    -1.4960     4.6410 hc         1 CDU       0.038200
     44 H161        -1.3170     0.1570     5.7200 hc         1 CDU       0.037200
     45 H162        -0.0630     1.3740     5.6490 hc         1 CDU       0.037200
     46 H171         1.3960    -0.0410     7.1120 hc         1 CDU       0.037200
     47 H172         0.1460    -1.2630     7.1770 hc         1 CDU       0.037200
     48 H181        -1.4110     0.3890     8.2380 hc         1 CDU       0.036700
     49 H182        -0.1580     1.6070     8.1800 hc         1 CDU       0.036700
     50 H191         1.2870     0.1920     9.6540 hc         1 CDU       0.036700
     51 H192         0.0370    -1.0280     9.7090 hc         1 CDU       0.036700
     52 H201        -0.0510     0.4100    11.7490 hc         1 CDU       0.031367
     53 H202        -0.2650     1.8430    10.7480 hc         1 CDU       0.031367
     54 H203        -1.5240     0.6150    10.8060 hc         1 CDU       0.031367
@<TRIPOS>BOND
     1     1     2 1   
     2     1     6 1   
     3     1    21 1   
     4     1    22 1   
     5     2     3 1   
     6     2    23 1   
     7     2    24 1   
     8     3     4 1   
     9     3    25 1   
    10     3    26 1   
    11     4     5 1   
    12     4    27 1   
    13     4    28 1   
    14     5     6 1   
    15     5     7 1   
    16     5    29 1   
    17     6    30 1   
    18     6    31 1   
    19     7     8 1   
    20     7    32 1   
    21     8     9 2   
    22     8    10 1   
    23    10    11 1   
    24    10    33 1   
    25    11    12 1   
    26    11    34 1   
    27    11    35 1   
    28    12    13 1   
    29    12    36 1   
    30    12    37 1   
    31    13    14 1   
    32    13    38 1   
    33    13    39 1   
    34    14    15 1   
    35    14    40 1   
    36    14    41 1   
    37    15    16 1   
    38    15    42 1   
    39    15    43 1   
    40    16    17 1   
    41    16    44 1   
    42    16    45 1   
    43    17    18 1   
    44    17    46 1   
    45    17    47 1   
    46    18    19 1   
    47    18    48 1   
    48    18    49 1   
    49    19    20 1   
    50    19    50 1   
    51    19    51 1   
    52    20    52 1   
    53    20    53 1   
    54    20    54 1   
@<TRIPOS>SUBSTRUCTURE
     1 CDU         1 TEMP              0 ****  ****    0 ROOT
