@<TRIPOS>MOLECULE
CDU
   54    54     1     0     0
SMALL
No Charge or Current Charge


@<TRIPOS>ATOM
      1 C1           1.1350     0.7230    -7.4800 c6         1 CDU      -0.071400
      2 C2          -0.1910     0.7360    -8.2780 c6         1 CDU      -0.077400
      3 C3          -1.1570    -0.3640    -7.7740 c6         1 CDU      -0.071400
      4 C4          -1.4060    -0.2330    -6.2510 c6         1 CDU      -0.091900
      5 C5          -0.0760    -0.2740    -5.4530 c6         1 CDU       0.117700
      6 C6           0.8730     0.8460    -5.9580 c6         1 CDU      -0.091900
      7 N1          -0.3450    -0.1170    -4.0200 ns         1 CDU      -0.512900
      8 C8           0.4700    -0.5480    -3.0100 c          1 CDU       0.643100
      9 O            1.5200    -1.1410    -3.1910 o          1 CDU      -0.641100
     10 N2          -0.0230    -0.2450    -1.7720 ns         1 CDU      -0.517900
     11 C11          0.6450    -0.5880    -0.5180 c3         1 CDU       0.109000
     12 C12         -0.1470    -0.0870     0.7040 c3         1 CDU      -0.092400
     13 C13          0.5350    -0.4350     2.0460 c3         1 CDU      -0.072400
     14 C14         -0.2560     0.0660     3.2740 c3         1 CDU      -0.074400
     15 C15          0.4260    -0.2810     4.6150 c3         1 CDU      -0.074400
     16 C16         -0.3650     0.2200     5.8430 c3         1 CDU      -0.074400
     17 C17          0.3170    -0.1270     7.1840 c3         1 CDU      -0.074400
     18 C18         -0.4740     0.3740     8.4120 c3         1 CDU      -0.075400
     19 C19          0.2080     0.0270     9.7540 c3         1 CDU      -0.074400
     20 C20         -0.5810     0.5270    10.9790 c3         1 CDU      -0.088100
     21 HC11         1.6830    -0.2060    -7.6870 hc         1 CDU       0.042700
     22 HC12         1.7800     1.5470    -7.8150 hc         1 CDU       0.042700
     23 HC21         0.0150     0.5910    -9.3480 hc         1 CDU       0.039200
     24 HC22        -0.6700     1.7210    -8.1830 hc         1 CDU       0.039200
     25 HC31        -0.7380    -1.3550    -7.9980 hc         1 CDU       0.042700
     26 HC32        -2.1100    -0.2990    -8.3160 hc         1 CDU       0.042700
     27 HC41        -2.0650    -1.0460    -5.9160 hc         1 CDU       0.043950
     28 HC42        -1.9380     0.7060    -6.0450 hc         1 CDU       0.043950
     29 HC51         0.4040    -1.2520    -5.6150 h1         1 CDU       0.082700
     30 HC61         0.4390     1.8310    -5.7370 hc         1 CDU       0.043950
     31 HC62         1.8280     0.7980    -5.4170 hc         1 CDU       0.043950
     32 HN1         -1.1920     0.3620    -3.7470 hn         1 CDU       0.294500
     33 HN2         -0.9040     0.2500    -1.7300 hn         1 CDU       0.295500
     34 H111         1.6480    -0.1400    -0.5160 h1         1 CDU       0.051200
     35 H112         0.7560    -1.6800    -0.4630 h1         1 CDU       0.051200
     36 H121        -1.1520    -0.5270     0.6860 hc         1 CDU       0.041700
     37 H122        -0.2680     1.0010     0.6320 hc         1 CDU       0.041700
     38 H131         1.5410     0.0030     2.0620 hc         1 CDU       0.041700
     39 H132         0.6580    -1.5230     2.1150 hc         1 CDU       0.041700
     40 H141        -1.2620    -0.3720     3.2570 hc         1 CDU       0.037200
     41 H142        -0.3790     1.1540     3.2030 hc         1 CDU       0.037200
     42 H151         1.4320     0.1570     4.6310 hc         1 CDU       0.038200
     43 H152         0.5490    -1.3690     4.6850 hc         1 CDU       0.038200
     44 H161        -1.3710    -0.2180     5.8270 hc         1 CDU       0.037200
     45 H162        -0.4890     1.3080     5.7720 hc         1 CDU       0.037200
     46 H171         1.3230     0.3110     7.2010 hc         1 CDU       0.037200
     47 H172         0.4400    -1.2150     7.2550 hc         1 CDU       0.037200
     48 H181        -1.4800    -0.0640     8.3960 hc         1 CDU       0.036700
     49 H182        -0.5980     1.4620     8.3420 hc         1 CDU       0.036700
     50 H191         1.2130     0.4660     9.7750 hc         1 CDU       0.036700
     51 H192         0.3310    -1.0600     9.8290 hc         1 CDU       0.036700
     52 H201        -0.0590     0.2580    11.9050 hc         1 CDU       0.031367
     53 H202        -0.6910     1.6180    10.9520 hc         1 CDU       0.031367
     54 H203        -1.5810     0.0780    11.0060 hc         1 CDU       0.031367
@<TRIPOS>BOND
     1     1     2 1   
     2     1     6 1   
     3     1    21 1   
     4     1    22 1   
     5     2     3 1   
     6     2    23 1   
     7     2    24 1   
     8     3     4 1   
     9     3    25 1   
    10     3    26 1   
    11     4     5 1   
    12     4    27 1   
    13     4    28 1   
    14     5     6 1   
    15     5     7 1   
    16     5    29 1   
    17     6    30 1   
    18     6    31 1   
    19     7     8 1   
    20     7    32 1   
    21     8     9 2   
    22     8    10 1   
    23    10    11 1   
    24    10    33 1   
    25    11    12 1   
    26    11    34 1   
    27    11    35 1   
    28    12    13 1   
    29    12    36 1   
    30    12    37 1   
    31    13    14 1   
    32    13    38 1   
    33    13    39 1   
    34    14    15 1   
    35    14    40 1   
    36    14    41 1   
    37    15    16 1   
    38    15    42 1   
    39    15    43 1   
    40    16    17 1   
    41    16    44 1   
    42    16    45 1   
    43    17    18 1   
    44    17    46 1   
    45    17    47 1   
    46    18    19 1   
    47    18    48 1   
    48    18    49 1   
    49    19    20 1   
    50    19    50 1   
    51    19    51 1   
    52    20    52 1   
    53    20    53 1   
    54    20    54 1   
@<TRIPOS>SUBSTRUCTURE
     1 CDU         1 TEMP              0 ****  ****    0 ROOT
