@<TRIPOS>MOLECULE
CDV
   22    21     1     0     0
SMALL
bcc


@<TRIPOS>ATOM
      1 NT           0.5100    -0.5630    -3.1340 nt         1 CDV      -0.670000
      2 CT           0.0600     0.1950    -2.0900 c          1 CDV       0.768100
      3 OT          -0.9130     0.9350    -2.1970 o          1 CDV      -0.642100
      4 N            0.7690     0.0730    -0.9390 ns         1 CDV      -0.537900
      5 CA           0.1850     0.5030     0.3150 c3         1 CDV      -0.033300
      6 CB           1.2280     0.3210     1.4340 c3         1 CDV      -0.046700
      7 CG1          0.8640     1.1010     2.6920 c3         1 CDV      -0.076100
      8 CG2          1.4970    -1.1430     1.7820 c3         1 CDV      -0.076100
      9 C           -1.1410    -0.2290     0.6340 c          1 CDV       0.925600
     10 O           -1.9270     0.3730     1.3950 o          1 CDV      -0.832300
     11 OXT         -1.2990    -1.3580     0.1360 o          1 CDV      -0.832300
     12 HT1          0.1970    -0.2930    -4.0510 hn         1 CDV       0.276000
     13 HT2          1.4400    -0.9480    -3.1090 hn         1 CDV       0.276000
     14 HN1          1.4050    -0.7070    -0.8860 hn         1 CDV       0.277500
     15 HA          -0.0210     1.5750     0.2410 h1         1 CDV       0.060700
     16 HB           2.1620     0.7480     1.0480 hc         1 CDV       0.007700
     17 HG11         1.6720     1.0340     3.4230 hc         1 CDV       0.026033
     18 HG12         0.7020     2.1580     2.4740 hc         1 CDV       0.026033
     19 HG13        -0.0420     0.7140     3.1560 hc         1 CDV       0.026033
     20 HG21         0.6250    -1.6130     2.2360 hc         1 CDV       0.026033
     21 HG22         1.7780    -1.7460     0.9160 hc         1 CDV       0.026033
     22 HG23         2.3190    -1.2130     2.4950 hc         1 CDV       0.026033
@<TRIPOS>BOND
     1     1     2 1   
     2     1    12 1   
     3     1    13 1   
     4     2     3 2   
     5     2     4 1   
     6     4     5 1   
     7     4    14 1   
     8     5     6 1   
     9     5     9 1   
    10     5    15 1   
    11     6     7 1   
    12     6     8 1   
    13     6    16 1   
    14     7    17 1   
    15     7    18 1   
    16     7    19 1   
    17     8    20 1   
    18     8    21 1   
    19     8    22 1   
    20     9    10 1   
    21     9    11 1   
@<TRIPOS>SUBSTRUCTURE
     1 CDV         1 TEMP              0 ****  ****    0 ROOT
