@<TRIPOS>MOLECULE
CDV
   22    21     1     0     0
SMALL
No Charge or Current Charge


@<TRIPOS>ATOM
      1 NT           0.8270    -0.3670    -3.0800 nt         1 CDV      -0.603000
      2 CT           0.6440     0.3870    -1.9850 c          1 CDV       0.634100
      3 OT           0.9490     1.5650    -1.9560 o          1 CDV      -0.642100
      4 N            0.0840    -0.3010    -0.9440 ns         1 CDV      -0.470900
      5 CA          -0.2060     0.2590     0.4000 c3         1 CDV      -0.033300
      6 CB           1.0820     0.4080     1.2700 c3         1 CDV      -0.046700
      7 CG1          0.8080     1.1630     2.5910 c3         1 CDV      -0.076100
      8 CG2          1.8080    -0.9340     1.5350 c3         1 CDV      -0.076100
      9 C           -1.3450    -0.5540     1.1030 c          1 CDV       0.715000
     10 O           -2.2600     0.0720     1.6210 o          1 CDV      -0.727000
     11 OXT         -1.3680    -1.7720     0.9720 o          1 CDV      -0.727000
     12 HT1          1.2320     0.0520    -3.9030 hn         1 CDV       0.276000
     13 HT2          0.5630    -1.3400    -3.0770 hn         1 CDV       0.276000
     14 HN1         -0.1350    -1.2770    -1.1030 hn         1 CDV       0.277500
     15 HA          -0.6110     1.2670     0.2410 h1         1 CDV       0.060700
     16 HB           1.7810     1.0330     0.7020 hc         1 CDV       0.007700
     17 HG11         1.7460     1.3600     3.1240 hc         1 CDV       0.026033
     18 HG12         0.3240     2.1270     2.3930 hc         1 CDV       0.026033
     19 HG13         0.1570     0.5790     3.2530 hc         1 CDV       0.026033
     20 HG21         1.1890    -1.6070     2.1400 hc         1 CDV       0.026033
     21 HG22         2.0560    -1.4420     0.5960 hc         1 CDV       0.026033
     22 HG23         2.7460    -0.7610     2.0770 hc         1 CDV       0.026033
@<TRIPOS>BOND
     1     1     2 1   
     2     1    12 1   
     3     1    13 1   
     4     2     3 2   
     5     2     4 1   
     6     4     5 1   
     7     4    14 1   
     8     5     6 1   
     9     5     9 1   
    10     5    15 1   
    11     6     7 1   
    12     6     8 1   
    13     6    16 1   
    14     7    17 1   
    15     7    18 1   
    16     7    19 1   
    17     8    20 1   
    18     8    21 1   
    19     8    22 1   
    20     9    10 1   
    21     9    11 1   
@<TRIPOS>SUBSTRUCTURE
     1 CDV         1 TEMP              0 ****  ****    0 ROOT
