@<TRIPOS>MOLECULE
CDX
   35    36     1     0     0
SMALL
abcg2


@<TRIPOS>ATOM
      1 OAO         -2.2290    -1.3860     2.3760 o          1 CDX      -0.511500
      2 CAP         -1.1570    -0.8260     2.3770 c          1 CDX       0.584000
      3 NAI         -0.0690    -1.3780     3.0120 ns         1 CDX      -0.471500
      4 CAC          1.1550    -0.7770     3.1840 c          1 CDX       0.584000
      5 OAB          2.0220    -1.3020     3.8440 o          1 CDX      -0.511500
      6 CAD          1.3110     0.5690     2.5310 c6         1 CDX       0.078300
      7 CAQ         -0.9270     0.5120     1.7260 c6         1 CDX       0.078300
      8 NAJ          0.4580     0.6950     1.3750 n3         1 CDX      -0.706600
      9 CAK          0.7200     1.9230     0.6540 c3         1 CDX       0.175800
     10 CAL         -0.0600     2.0630    -0.6550 c3         1 CDX       0.199500
     11 CAE          0.5450     3.2020    -1.4760 c3         1 CDX      -0.132100
     12 NAM         -0.1660     0.7890    -1.3480 n3         1 CDX      -0.729600
     13 CAR          1.0760     0.1570    -1.7100 c6         1 CDX       0.090800
     14 CAS          0.8370    -1.2700    -2.1290 c          1 CDX       0.583000
     15 OAT          1.6780    -2.1360    -2.0530 o          1 CDX      -0.513000
     16 NAN         -0.4090    -1.5360    -2.6460 ns         1 CDX      -0.471500
     17 CAG         -1.3970    -0.6110    -2.8950 c          1 CDX       0.583000
     18 CAF         -1.0950     0.7940    -2.4460 c6         1 CDX       0.090800
     19 OAH         -2.4190    -0.9250    -3.4610 o          1 CDX      -0.513000
     20 HAI         -0.2070    -2.2790     3.4560 hn         1 CDX       0.333500
     21 HAD1         2.3550     0.6740     2.2340 h1         1 CDX       0.071450
     22 HAD2         1.1190     1.3360     3.3030 h1         1 CDX       0.071450
     23 HAQ1        -1.3110     1.2850     2.4160 h1         1 CDX       0.071450
     24 HAQ2        -1.5480     0.5390     0.8320 h1         1 CDX       0.071450
     25 HAK1         1.7940     1.9540     0.4450 h1         1 CDX       0.040200
     26 HAK2         0.5050     2.8160     1.2630 h1         1 CDX       0.040200
     27 HAL         -1.0890     2.3480    -0.4090 h1         1 CDX       0.060700
     28 HAE1         1.5690     2.9790    -1.7830 hc         1 CDX       0.045367
     29 HAE2        -0.0400     3.4110    -2.3720 hc         1 CDX       0.045367
     30 HAE3         0.5730     4.1190    -0.8860 hc         1 CDX       0.045367
     31 HAR1         1.6070     0.6540    -2.5410 h1         1 CDX       0.070450
     32 HAR2         1.7560     0.1320    -0.8610 h1         1 CDX       0.070450
     33 HAN         -0.5890    -2.4890    -2.9430 hn         1 CDX       0.332500
     34 HAF1        -2.0350     1.2520    -2.1380 h1         1 CDX       0.070450
     35 HAF2        -0.7450     1.3500    -3.3340 h1         1 CDX       0.070450
@<TRIPOS>BOND
     1     1     2 2   
     2     2     3 1   
     3     2     7 1   
     4     3     4 1   
     5     3    20 1   
     6     4     5 2   
     7     4     6 1   
     8     6     8 1   
     9     6    21 1   
    10     6    22 1   
    11     7     8 1   
    12     7    23 1   
    13     7    24 1   
    14     8     9 1   
    15     9    10 1   
    16     9    25 1   
    17     9    26 1   
    18    10    11 1   
    19    10    12 1   
    20    10    27 1   
    21    11    28 1   
    22    11    29 1   
    23    11    30 1   
    24    12    13 1   
    25    12    18 1   
    26    13    14 1   
    27    13    31 1   
    28    13    32 1   
    29    14    15 2   
    30    14    16 1   
    31    16    17 1   
    32    16    33 1   
    33    17    18 1   
    34    17    19 2   
    35    18    34 1   
    36    18    35 1   
@<TRIPOS>SUBSTRUCTURE
     1 CDX         1 TEMP              0 ****  ****    0 ROOT
