@<TRIPOS>MOLECULE
CDX
   35    36     1     0     0
SMALL
No Charge or Current Charge


@<TRIPOS>ATOM
      1 OAO         -2.4040    -1.0600     3.1330 o          1 CDX      -0.511500
      2 CAP         -1.2800    -0.5960     3.0090 c          1 CDX       0.584000
      3 NAI         -0.2340    -1.0770     3.7510 ns         1 CDX      -0.471500
      4 CAC          1.0830    -0.7120     3.6700 c          1 CDX       0.584000
      5 OAB          1.9350    -1.2770     4.3410 o          1 CDX      -0.511500
      6 CAD          1.4160     0.4510     2.6890 c6         1 CDX       0.078300
      7 CAQ         -0.9500     0.5600     2.0180 c6         1 CDX       0.078300
      8 NAJ          0.4730     0.5980     1.5290 n3         1 CDX      -0.706600
      9 CAK          0.7940     1.7610     0.6510 c3         1 CDX       0.175800
     10 CAL         -0.0710     1.9200    -0.6480 c3         1 CDX       0.199500
     11 CAE          0.4060     3.1530    -1.4550 c3         1 CDX      -0.132100
     12 NAM         -0.1710     0.6730    -1.4720 n3         1 CDX      -0.729600
     13 CAR          1.1300     0.1150    -1.9860 c6         1 CDX       0.090800
     14 CAS          1.0010    -1.1970    -2.8180 c          1 CDX       0.583000
     15 OAT          1.9070    -2.0120    -2.9130 o          1 CDX      -0.513000
     16 NAN         -0.1970    -1.4000    -3.4530 ns         1 CDX      -0.471500
     17 CAG         -1.3220    -0.6210    -3.3850 c          1 CDX       0.583000
     18 CAF         -1.1960     0.7030    -2.5730 c6         1 CDX       0.090800
     19 OAH         -2.3560    -0.9610    -3.9420 o          1 CDX      -0.513000
     20 HAI         -0.4500    -1.8270     4.3900 hn         1 CDX       0.333500
     21 HAD1         2.4440     0.2870     2.3370 h1         1 CDX       0.071450
     22 HAD2         1.4160     1.3660     3.3000 h1         1 CDX       0.071450
     23 HAQ1        -1.1970     1.4910     2.5490 h1         1 CDX       0.071450
     24 HAQ2        -1.6500     0.4580     1.1770 h1         1 CDX       0.071450
     25 HAK1         1.8460     1.6930     0.3450 h1         1 CDX       0.040200
     26 HAK2         0.7010     2.6890     1.2320 h1         1 CDX       0.040200
     27 HAL         -1.0840     2.1650    -0.3010 h1         1 CDX       0.060700
     28 HAE1         1.4230     3.0100    -1.8370 hc         1 CDX       0.045367
     29 HAE2        -0.2580     3.3600    -2.3000 hc         1 CDX       0.045367
     30 HAE3         0.4100     4.0450    -0.8170 hc         1 CDX       0.045367
     31 HAR1         1.6280     0.8360    -2.6480 h1         1 CDX       0.070450
     32 HAR2         1.8170    -0.1090    -1.1570 h1         1 CDX       0.070450
     33 HAN         -0.2780    -2.2520    -3.9860 hn         1 CDX       0.332500
     34 HAF1        -2.1940     0.9280    -2.1720 h1         1 CDX       0.070450
     35 HAF2        -0.9510     1.4750    -3.3150 h1         1 CDX       0.070450
@<TRIPOS>BOND
     1     1     2 2   
     2     2     3 1   
     3     2     7 1   
     4     3     4 1   
     5     3    20 1   
     6     4     5 2   
     7     4     6 1   
     8     6     8 1   
     9     6    21 1   
    10     6    22 1   
    11     7     8 1   
    12     7    23 1   
    13     7    24 1   
    14     8     9 1   
    15     9    10 1   
    16     9    25 1   
    17     9    26 1   
    18    10    11 1   
    19    10    12 1   
    20    10    27 1   
    21    11    28 1   
    22    11    29 1   
    23    11    30 1   
    24    12    13 1   
    25    12    18 1   
    26    13    14 1   
    27    13    31 1   
    28    13    32 1   
    29    14    15 2   
    30    14    16 1   
    31    16    17 1   
    32    16    33 1   
    33    17    18 1   
    34    17    19 2   
    35    18    34 1   
    36    18    35 1   
@<TRIPOS>SUBSTRUCTURE
     1 CDX         1 TEMP              0 ****  ****    0 ROOT
