@<TRIPOS>MOLECULE
CDY
   30    32     1     0     0
SMALL
No Charge or Current Charge


@<TRIPOS>ATOM
      1 O5          -0.5540    -2.0790    -4.8980 oh         1 CDY      -0.705000
      2 C5           0.0280    -0.7690    -4.7680 c3         1 CDY       0.161600
      3 C4          -0.7200     0.0850    -3.7050 c5         1 CDY       0.155300
      4 O4          -0.4310    -0.3770    -2.3690 os         1 CDY      -0.440000
      5 C3          -0.2800     1.5640    -3.6300 c5         1 CDY      -0.116400
      6 C2          -0.9570     1.9620    -2.2910 c5         1 CDY      -0.120400
      7 C1          -0.8040     0.6630    -1.4360 c5         1 CDY       0.320300
      8 N9           0.1930     0.6860    -0.3690 na         1 CDY      -0.299300
      9 C8           1.3980     1.3960    -0.3870 cc         1 CDY       0.417700
     10 N7           2.0820     1.2360     0.7630 nd         1 CDY      -0.559100
     11 C7           1.2550     0.3920     1.5120 ca         1 CDY      -0.100600
     12 C9           0.1110     0.0510     0.8370 ca         1 CDY       0.123500
     13 N3          -0.8250    -0.7570     1.3710 nb         1 CDY      -0.214000
     14 C10         -0.5590    -1.2140     2.6180 ca         1 CDY       0.283000
     15 Cl          -1.7620    -2.2720     3.3380 cl         1 CDY      -0.140000
     16 N1           0.5330    -0.9420     3.3700 nb         1 CDY      -0.295000
     17 C6           1.4420    -0.1310     2.8090 ca         1 CDY       0.464900
     18 N6           2.5440     0.1460     3.5570 nv         1 CDY      -1.057900
     19 HO5          0.0060    -2.5810    -5.5350 ho         1 CDY       0.506000
     20 HC51        -0.0200    -0.2430    -5.7310 h1         1 CDY       0.025200
     21 HC52         1.0870    -0.8430    -4.4840 h1         1 CDY       0.025200
     22 H4          -1.8020     0.0100    -3.8850 h1         1 CDY       0.071700
     23 HC31        -0.6370     2.1570    -4.4800 hc         1 CDY       0.064200
     24 HC32         0.8120     1.6590    -3.5870 hc         1 CDY       0.064200
     25 HC21        -2.0180     2.1940    -2.4400 hc         1 CDY       0.079200
     26 HC22        -0.5050     2.8470    -1.8290 hc         1 CDY       0.079200
     27 H1          -1.7630     0.4150    -0.9600 h2         1 CDY       0.107700
     28 HC8          1.7140     1.9880    -1.2390 h5         1 CDY       0.075800
     29 HN61         2.7640    -0.4790     4.3280 hn         1 CDY       0.510500
     30 HN62         3.3330     0.5700     3.0740 hn         1 CDY       0.510500
@<TRIPOS>BOND
     1     1     2 1   
     2     1    19 1   
     3     2     3 1   
     4     2    20 1   
     5     2    21 1   
     6     3     4 1   
     7     3     5 1   
     8     3    22 1   
     9     4     7 1   
    10     5     6 1   
    11     5    23 1   
    12     5    24 1   
    13     6     7 1   
    14     6    25 1   
    15     6    26 1   
    16     7     8 1   
    17     7    27 1   
    18     8     9 1   
    19     8    12 1   
    20     9    10 2   
    21     9    28 1   
    22    10    11 1   
    23    11    12 ar  
    24    11    17 ar  
    25    12    13 ar  
    26    13    14 ar  
    27    14    15 1   
    28    14    16 ar  
    29    16    17 ar  
    30    17    18 1   
    31    18    29 1   
    32    18    30 1   
@<TRIPOS>SUBSTRUCTURE
     1 CDY         1 TEMP              0 ****  ****    0 ROOT
