@<TRIPOS>MOLECULE
CDY
   30    32     1     0     0
SMALL
abcg2


@<TRIPOS>ATOM
      1 O5           0.5220    -1.0530    -5.3230 oh         1 CDY      -0.705000
      2 C5           0.4800     0.1770    -4.6430 c3         1 CDY       0.161600
      3 C4          -0.7290     0.2060    -3.7400 c5         1 CDY       0.155300
      4 O4          -0.6360    -0.8200    -2.7370 os         1 CDY      -0.440000
      5 C3          -0.8930     1.5060    -2.9700 c5         1 CDY      -0.116400
      6 C2          -1.6460     1.0370    -1.7340 c5         1 CDY      -0.120400
      7 C1          -1.0300    -0.3390    -1.4950 c5         1 CDY       0.320300
      8 N9           0.1480    -0.2580    -0.6210 na         1 CDY      -0.299300
      9 C8           1.4690    -0.3940    -0.9450 cc         1 CDY       0.417700
     10 N7           2.2690    -0.2680     0.0760 nd         1 CDY      -0.559100
     11 C7           1.4330    -0.0410     1.1340 ca         1 CDY      -0.100600
     12 C9           0.1110    -0.0350     0.7190 ca         1 CDY       0.123500
     13 N3          -0.9630     0.1490     1.4930 nb         1 CDY      -0.214000
     14 C10         -0.6120     0.3310     2.7400 ca         1 CDY       0.283000
     15 CL          -1.9270     0.5790     3.8480 cl         1 CDY      -0.140000
     16 N1           0.5840     0.3550     3.2940 nb         1 CDY      -0.295000
     17 C6           1.6550     0.1690     2.5080 ca         1 CDY       0.464900
     18 N6           2.8670     0.1920     3.0530 nv         1 CDY      -1.057900
     19 HO5          1.3050    -1.0620    -5.8800 ho         1 CDY       0.506000
     20 HC51         0.3910     1.0270    -5.3330 h1         1 CDY       0.025200
     21 HC52         1.3860     0.3460    -4.0470 h1         1 CDY       0.025200
     22 H4          -1.6270     0.0130    -4.3400 h1         1 CDY       0.071700
     23 HC31        -1.4410     2.2530    -3.5410 hc         1 CDY       0.064200
     24 HC32         0.0780     1.9330    -2.7010 hc         1 CDY       0.064200
     25 HC21        -2.7080     0.9150    -1.9530 hc         1 CDY       0.079200
     26 HC22        -1.5560     1.6990    -0.8750 hc         1 CDY       0.079200
     27 H1          -1.7230    -1.0360    -1.0180 h2         1 CDY       0.107700
     28 HC8          1.7920    -0.5990    -1.9520 h5         1 CDY       0.075800
     29 HN61         2.9790     0.3190     4.0440 hn         1 CDY       0.510500
     30 HN62         3.6880     0.0330     2.4960 hn         1 CDY       0.510500
@<TRIPOS>BOND
     1     1     2 1   
     2     1    19 1   
     3     2     3 1   
     4     2    20 1   
     5     2    21 1   
     6     3     4 1   
     7     3     5 1   
     8     3    22 1   
     9     4     7 1   
    10     5     6 1   
    11     5    23 1   
    12     5    24 1   
    13     6     7 1   
    14     6    25 1   
    15     6    26 1   
    16     7     8 1   
    17     7    27 1   
    18     8     9 1   
    19     8    12 1   
    20     9    10 2   
    21     9    28 1   
    22    10    11 1   
    23    11    12 ar  
    24    11    17 ar  
    25    12    13 ar  
    26    13    14 ar  
    27    14    15 1   
    28    14    16 ar  
    29    16    17 ar  
    30    17    18 1   
    31    18    29 1   
    32    18    30 1   
@<TRIPOS>SUBSTRUCTURE
     1 CDY         1 TEMP              0 ****  ****    0 ROOT
