@<TRIPOS>MOLECULE
CDZ
   65    65     1     0     0
SMALL
abcg2


@<TRIPOS>ATOM
      1 CAC          4.7670     0.8850     0.1600 c3         1 CDZ      -0.059150
      2 CAT          3.8200     1.1640     1.2870 c2         1 CDZ      -0.095400
      3 CAD          4.3050     0.6970     2.6290 c3         1 CDZ      -0.059150
      4 CAN          2.6380     1.7730     1.1650 c2         1 CDZ      -0.238700
      5 CAQ          1.9980     2.2780    -0.0910 c3         1 CDZ      -0.018700
      6 CBC          0.7540     1.4470    -0.4990 c6         1 CDZ      -0.120800
      7 CAR          0.1350     2.0390    -1.7980 c3         1 CDZ      -0.018700
      8 CAO         -1.0880     1.2940    -2.2330 c2         1 CDZ      -0.238700
      9 CAU         -2.3520     1.7250    -2.2300 c2         1 CDZ      -0.095400
     10 CAF         -2.7920     3.0970    -1.8170 c3         1 CDZ      -0.059150
     11 CAE         -3.4720     0.8200    -2.6510 c3         1 CDZ      -0.059150
     12 CAW         -0.2810     1.5210     0.5780 c2         1 CDZ       0.231900
     13 OAJ         -0.6310     2.7710     0.8490 oh         1 CDZ      -0.516100
     14 CAY          1.2340     0.0270    -0.8330 c          1 CDZ       0.638300
     15 OAL          2.0990    -0.0610    -1.6910 o          1 CDZ      -0.571100
     16 CBA          0.6280    -1.1020    -0.1690 ce         1 CDZ      -0.523400
     17 CAV          0.9860    -2.4820    -0.4220 c          1 CDZ       0.634300
     18 OAI          0.3960    -3.3950     0.1940 o          1 CDZ      -0.616100
     19 CBB          2.0290    -2.9010    -1.4310 c3         1 CDZ      -0.135700
     20 CAH          2.6190    -4.2680    -1.1050 c3         1 CDZ      -0.078100
     21 CAG          1.3810    -2.9060    -2.8220 c3         1 CDZ      -0.078100
     22 CAX         -0.3810    -0.8560     0.7950 cf         1 CDZ       0.385100
     23 OAK         -0.9660    -1.8460     1.3910 oh         1 CDZ      -0.559100
     24 CAZ         -0.8220     0.4460     1.1950 cf         1 CDZ      -0.296200
     25 CAP         -1.9360     0.5520     2.2070 c3         1 CDZ       0.028000
     26 CAM         -3.2760     0.4600     1.5330 c2         1 CDZ      -0.238200
     27 CAS         -4.2390    -0.4390     1.7450 c2         1 CDZ      -0.089400
     28 CAB         -4.1680    -1.5500     2.7490 c3         1 CDZ      -0.057400
     29 CAA         -5.5130    -0.4030     0.9520 c3         1 CDZ      -0.057400
     30 HAC          4.8970    -0.1920     0.0300 hc         1 CDZ       0.041200
     31 HACA         4.4410     1.2920    -0.7940 hc         1 CDZ       0.041200
     32 HACB         5.7550     1.2920     0.3850 hc         1 CDZ       0.041200
     33 HAD          5.2410     1.1920     2.9010 hc         1 CDZ       0.041200
     34 HADA         3.5800     0.8900     3.4190 hc         1 CDZ       0.041200
     35 HADB         4.5150    -0.3750     2.6160 hc         1 CDZ       0.041200
     36 HAN          2.0540     1.9120     2.0730 ha         1 CDZ       0.170000
     37 HAQ          1.6900     3.3190     0.0380 hc         1 CDZ       0.064700
     38 HAQA         2.6880     2.2640    -0.9330 hc         1 CDZ       0.064700
     39 HAR         -0.0630     3.1000    -1.6420 hc         1 CDZ       0.064700
     40 HARA         0.9060     1.9800    -2.5690 hc         1 CDZ       0.064700
     41 HAO         -0.9130     0.2720    -2.5600 ha         1 CDZ       0.170000
     42 HAF         -3.3540     3.5750    -2.6230 hc         1 CDZ       0.041200
     43 HAFA        -3.4720     3.0400    -0.9620 hc         1 CDZ       0.041200
     44 HAFB        -1.9730     3.7580    -1.5450 hc         1 CDZ       0.041200
     45 HAE         -4.1990     0.7070    -1.8420 hc         1 CDZ       0.041200
     46 HAEA        -4.0180     1.2360    -3.5010 hc         1 CDZ       0.041200
     47 HAEB        -3.1200    -0.1740    -2.9270 hc         1 CDZ       0.041200
     48 HBB          2.8310    -2.1660    -1.4360 hc         1 CDZ       0.090700
     49 HAH          1.8770    -5.0640    -1.1580 hc         1 CDZ       0.039200
     50 HAHA         3.4030    -4.4980    -1.8270 hc         1 CDZ       0.039200
     51 HAHB         3.0710    -4.2900    -0.1130 hc         1 CDZ       0.039200
     52 HAG          0.9710    -1.9330    -3.0920 hc         1 CDZ       0.039200
     53 HAGA         2.1260    -3.1710    -3.5720 hc         1 CDZ       0.039200
     54 HAGB         0.5770    -3.6420    -2.8750 hc         1 CDZ       0.039200
     55 HOAK        -0.5230    -2.7030     1.0120 ho         1 CDZ       0.554000
     56 HAP         -1.8150    -0.2120     2.9740 hc         1 CDZ       0.050700
     57 HAPA        -1.8650     1.4960     2.7590 hc         1 CDZ       0.050700
     58 HAM         -3.4460     1.2140     0.7670 ha         1 CDZ       0.162000
     59 HAB         -5.0270    -1.5070     3.4220 hc         1 CDZ       0.040867
     60 HABA        -4.2130    -2.5200     2.2480 hc         1 CDZ       0.040867
     61 HABB        -3.2670    -1.5320     3.3560 hc         1 CDZ       0.040867
     62 HAA         -5.6590    -1.3410     0.4110 hc         1 CDZ       0.040867
     63 HAAA        -6.3800    -0.2870     1.6080 hc         1 CDZ       0.040867
     64 HAAB        -5.5280     0.4100     0.2270 hc         1 CDZ       0.040867
     65 H36         -1.3090     2.8200     1.5350 ho         1 CDZ       0.482000
@<TRIPOS>BOND
     1     1     2 1   
     2     1    30 1   
     3     1    31 1   
     4     1    32 1   
     5     2     3 1   
     6     2     4 2   
     7     3    33 1   
     8     3    34 1   
     9     3    35 1   
    10     4     5 1   
    11     4    36 1   
    12     5     6 1   
    13     5    37 1   
    14     5    38 1   
    15     6     7 1   
    16     6    12 1   
    17     6    14 1   
    18     7     8 1   
    19     7    39 1   
    20     7    40 1   
    21     8     9 2   
    22     8    41 1   
    23     9    10 1   
    24     9    11 1   
    25    10    42 1   
    26    10    43 1   
    27    10    44 1   
    28    11    45 1   
    29    11    46 1   
    30    11    47 1   
    31    12    13 1   
    32    12    24 2   
    33    13    65 1   
    34    14    15 2   
    35    14    16 1   
    36    16    17 1   
    37    16    22 2   
    38    17    18 2   
    39    17    19 1   
    40    19    20 1   
    41    19    21 1   
    42    19    48 1   
    43    20    49 1   
    44    20    50 1   
    45    20    51 1   
    46    21    52 1   
    47    21    53 1   
    48    21    54 1   
    49    22    23 1   
    50    22    24 1   
    51    23    55 1   
    52    24    25 1   
    53    25    26 1   
    54    25    56 1   
    55    25    57 1   
    56    26    27 2   
    57    26    58 1   
    58    27    28 1   
    59    27    29 1   
    60    28    59 1   
    61    28    60 1   
    62    28    61 1   
    63    29    62 1   
    64    29    63 1   
    65    29    64 1   
@<TRIPOS>SUBSTRUCTURE
     1 CDZ         1 TEMP              0 ****  ****    0 ROOT
