@<TRIPOS>MOLECULE
CDZ
   65    65     1     0     0
SMALL
No Charge or Current Charge


@<TRIPOS>ATOM
      1 CAC          4.5200     0.3140    -0.1700 c3         1 CDZ      -0.059150
      2 CAT          3.6310     0.6280     1.0250 c2         1 CDZ      -0.095400
      3 CAD          4.1510    -0.0060     2.3020 c3         1 CDZ      -0.059150
      4 CAN          2.5110     1.3770     1.0060 c2         1 CDZ      -0.238700
      5 CAQ          1.8720     2.0970    -0.1740 c3         1 CDZ      -0.018700
      6 CBC          0.5330     1.4520    -0.6610 c6         1 CDZ      -0.120800
      7 CAR         -0.0140     2.2570    -1.9010 c3         1 CDZ      -0.018700
      8 CAO         -1.3140     1.6980    -2.4720 c2         1 CDZ      -0.238700
      9 CAU         -2.5570     2.2170    -2.4160 c2         1 CDZ      -0.095400
     10 CAF         -2.9610     3.5280    -1.7570 c3         1 CDZ      -0.059150
     11 CAE         -3.7510     1.5040    -3.0260 c3         1 CDZ      -0.059150
     12 CAW         -0.4810     1.4970     0.4750 c2         1 CDZ       0.231900
     13 OAJ         -0.9280     2.7280     0.7810 oh         1 CDZ      -0.516100
     14 CAY          0.8480    -0.0040    -1.0970 c          1 CDZ       0.638300
     15 OAL          1.2860    -0.2210    -2.2180 o          1 CDZ      -0.571100
     16 CBA          0.5380    -1.1260    -0.1660 ce         1 CDZ      -0.523400
     17 CAV          1.1040    -2.4990    -0.4020 c          1 CDZ       0.634300
     18 OAI          0.5470    -3.4620     0.1160 o          1 CDZ      -0.616100
     19 CBB          2.3970    -2.7480    -1.2230 c3         1 CDZ      -0.135700
     20 CAH          3.4310    -3.5700    -0.4140 c3         1 CDZ      -0.078100
     21 CAG          2.0720    -3.4170    -2.5810 c3         1 CDZ      -0.078100
     22 CAX         -0.3050    -0.8870     0.8740 cf         1 CDZ       0.385100
     23 OAK         -0.6440    -1.8770     1.6990 oh         1 CDZ      -0.559100
     24 CAZ         -0.8900     0.4180     1.1750 cf         1 CDZ      -0.296200
     25 CAP         -1.9160     0.5390     2.3150 c3         1 CDZ       0.028000
     26 CAM         -3.3330     0.5140     1.7630 c2         1 CDZ      -0.238200
     27 CAS         -4.2750    -0.4400     1.8970 c2         1 CDZ      -0.089400
     28 CAB         -4.1270    -1.7520     2.6550 c3         1 CDZ      -0.057400
     29 CAA         -5.6490    -0.3060     1.2640 c3         1 CDZ      -0.057400
     30 HAC          4.7260    -0.7610    -0.2350 hc         1 CDZ       0.041200
     31 HACA         4.0800     0.6090    -1.1270 hc         1 CDZ       0.041200
     32 HACB         5.4860     0.8250    -0.0800 hc         1 CDZ       0.041200
     33 HAD          5.1640     0.3460     2.5320 hc         1 CDZ       0.041200
     34 HADA         3.5170     0.2320     3.1640 hc         1 CDZ       0.041200
     35 HADB         4.1870    -1.0980     2.2150 hc         1 CDZ       0.041200
     36 HAN          1.9660     1.5340     1.9380 ha         1 CDZ       0.170000
     37 HAQ          1.6950     3.1410     0.1120 hc         1 CDZ       0.064700
     38 HAQA         2.5710     2.1640    -1.0150 hc         1 CDZ       0.064700
     39 HAR         -0.1210     3.3150    -1.6400 hc         1 CDZ       0.064700
     40 HARA         0.7390     2.2660    -2.7000 hc         1 CDZ       0.064700
     41 HAO         -1.1690     0.7480    -2.9880 ha         1 CDZ       0.170000
     42 HAF         -3.4480     4.1940    -2.4800 hc         1 CDZ       0.041200
     43 HAFA        -3.6720     3.3510    -0.9410 hc         1 CDZ       0.041200
     44 HAFB        -2.1180     4.0820    -1.3350 hc         1 CDZ       0.041200
     45 HAE         -4.5050     1.2750    -2.2630 hc         1 CDZ       0.041200
     46 HAEA        -4.2300     2.1210    -3.7960 hc         1 CDZ       0.041200
     47 HAEB        -3.4650     0.5560    -3.4970 hc         1 CDZ       0.041200
     48 HBB          2.8740    -1.7920    -1.4420 hc         1 CDZ       0.090700
     49 HAH          3.0540    -4.5770    -0.1980 hc         1 CDZ       0.039200
     50 HAHA         4.3690    -3.6700    -0.9740 hc         1 CDZ       0.039200
     51 HAHB         3.6560    -3.0760     0.5390 hc         1 CDZ       0.039200
     52 HAG          1.3600    -2.8120    -3.1540 hc         1 CDZ       0.039200
     53 HAGA         2.9810    -3.5330    -3.1830 hc         1 CDZ       0.039200
     54 HAGB         1.6310    -4.4100    -2.4310 hc         1 CDZ       0.039200
     55 HOAK        -0.2690    -2.6810     1.2520 ho         1 CDZ       0.554000
     56 HAP         -1.7700    -0.2190     3.0900 hc         1 CDZ       0.050700
     57 HAPA        -1.7690     1.4710     2.8750 hc         1 CDZ       0.050700
     58 HAM         -3.5730     1.4040     1.1800 ha         1 CDZ       0.162000
     59 HAB         -4.8620    -1.8180     3.4660 hc         1 CDZ       0.040867
     60 HABA        -4.2930    -2.6070     1.9890 hc         1 CDZ       0.040867
     61 HABB        -3.1400    -1.8860     3.1050 hc         1 CDZ       0.040867
     62 HAA         -5.8390    -1.1210     0.5560 hc         1 CDZ       0.040867
     63 HAAA        -6.4390    -0.3310     2.0240 hc         1 CDZ       0.040867
     64 HAAB        -5.7540     0.6360     0.7120 hc         1 CDZ       0.040867
     65 H36         -1.5650     2.6200     1.5120 ho         1 CDZ       0.482000
@<TRIPOS>BOND
     1     1     2 1   
     2     1    30 1   
     3     1    31 1   
     4     1    32 1   
     5     2     3 1   
     6     2     4 2   
     7     3    33 1   
     8     3    34 1   
     9     3    35 1   
    10     4     5 1   
    11     4    36 1   
    12     5     6 1   
    13     5    37 1   
    14     5    38 1   
    15     6     7 1   
    16     6    12 1   
    17     6    14 1   
    18     7     8 1   
    19     7    39 1   
    20     7    40 1   
    21     8     9 2   
    22     8    41 1   
    23     9    10 1   
    24     9    11 1   
    25    10    42 1   
    26    10    43 1   
    27    10    44 1   
    28    11    45 1   
    29    11    46 1   
    30    11    47 1   
    31    12    13 1   
    32    12    24 2   
    33    13    65 1   
    34    14    15 2   
    35    14    16 1   
    36    16    17 1   
    37    16    22 2   
    38    17    18 2   
    39    17    19 1   
    40    19    20 1   
    41    19    21 1   
    42    19    48 1   
    43    20    49 1   
    44    20    50 1   
    45    20    51 1   
    46    21    52 1   
    47    21    53 1   
    48    21    54 1   
    49    22    23 1   
    50    22    24 1   
    51    23    55 1   
    52    24    25 1   
    53    25    26 1   
    54    25    56 1   
    55    25    57 1   
    56    26    27 2   
    57    26    58 1   
    58    27    28 1   
    59    27    29 1   
    60    28    59 1   
    61    28    60 1   
    62    28    61 1   
    63    29    62 1   
    64    29    63 1   
    65    29    64 1   
@<TRIPOS>SUBSTRUCTURE
     1 CDZ         1 TEMP              0 ****  ****    0 ROOT
