@<TRIPOS>MOLECULE
CE0
   57    58     1     0     0
SMALL
abcg2


@<TRIPOS>ATOM
      1 N            4.6990    -1.9030    -2.1950 n8         1 CE0      -0.986200
      2 CA           4.6410    -1.7400    -0.7540 c3         1 CE0      -0.004500
      3 C            5.7890    -2.4100     0.0540 c          1 CE0       0.701000
      4 O            6.6260    -3.0740    -0.5830 o          1 CE0      -0.736000
      5 CB           3.3170    -2.2630    -0.2260 c3         1 CE0       0.196600
      6 OG           2.2700    -1.4470    -0.7800 os         1 CE0      -0.412100
      7 OXT          5.7630    -2.2190     1.2870 o          1 CE0      -0.736000
      8 S1           0.4510     0.3520     1.7920 ss         1 CE0      -0.635000
      9 C2           0.6170     2.1020     2.2420 c6         1 CE0       0.162800
     10 C3           1.7500     2.8020     1.5400 c2         1 CE0      -0.265400
     11 C5           2.3210     3.9470     2.3380 c3         1 CE0       0.012100
     12 C4           2.2180     2.3780     0.3480 ce         1 CE0       0.072800
     13 C9           3.5240     2.8440    -0.2990 c          1 CE0       0.718200
     14 O4A          4.0310     3.9120     0.0790 o          1 CE0      -0.708500
     15 O4B          3.9860     2.0650    -1.1610 o          1 CE0      -0.708500
     16 N5           1.6000     1.4030    -0.4220 nu         1 CE0      -0.779200
     17 C6           0.4120     0.7520    -0.0160 c6         1 CE0       0.407500
     18 C7           0.1330    -0.5150    -0.8510 c3         1 CE0       0.032700
     19 C8           1.0300    -1.6550    -0.3980 c          1 CE0       0.598100
     20 O9           0.6500    -2.5920     0.2570 o          1 CE0      -0.532000
     21 N10         -1.2410    -0.9190    -0.7660 ns         1 CE0      -0.476900
     22 C11         -2.1960    -0.3210    -1.5090 c          1 CE0       0.585100
     23 O12         -1.9370     0.4730    -2.3960 o          1 CE0      -0.574100
     24 C13         -3.6270    -0.7180    -1.1470 c3         1 CE0       0.064500
     25 N16         -4.4490    -1.1670    -2.2510 n7         1 CE0      -0.633900
     26 O17         -4.5890    -0.1760    -3.2340 os         1 CE0      -0.240300
     27 C18         -5.9590     0.0420    -3.4890 c3         1 CE0       0.152900
     28 C14         -4.2760     0.4510    -0.3820 c5         1 CE0       0.149500
     29 C15         -5.6170     0.0420     0.2490 c5         1 CE0       0.052600
     30 S16         -5.1710    -0.5560     1.9020 ss         1 CE0      -0.481200
     31 C17         -3.6470     0.3590     1.7840 c2         1 CE0       0.703100
     32 N18         -2.8880     0.4700     2.8950 nv         1 CE0      -1.009200
     33 N19         -3.3620     0.8700     0.6540 n2         1 CE0      -0.650900
     34 HN           5.4340    -1.3100    -2.5590 hn         1 CE0       0.378500
     35 HNA          5.0140    -2.8460    -2.3920 hn         1 CE0       0.378500
     36 HA           4.6740    -0.6650    -0.5380 h1         1 CE0       0.096700
     37 HB           3.1630    -3.3050    -0.5200 h1         1 CE0       0.047200
     38 HBA          3.2800    -2.1990     0.8610 h1         1 CE0       0.047200
     39 H2          -0.3460     2.5950     2.0820 h1         1 CE0       0.041200
     40 H2A          0.7930     2.1120     3.3200 h1         1 CE0       0.041200
     41 H3           1.6260     4.2260     3.1330 hc         1 CE0       0.018033
     42 H3'A         3.2650     3.6870     2.8230 hc         1 CE0       0.018033
     43 H3'B         2.5070     4.8300     1.7350 hc         1 CE0       0.018033
     44 HN5          2.2790     0.8670    -0.9450 hn         1 CE0       0.531000
     45 H6          -0.4480     1.4170    -0.1270 h2         1 CE0       0.079700
     46 H7           0.3590    -0.2700    -1.8920 h1         1 CE0       0.119700
     47 HN10        -1.5150    -1.4910     0.0170 hn         1 CE0       0.325500
     48 H13         -3.5990    -1.5810    -0.4710 h1         1 CE0       0.076700
     49 HN16        -3.9950    -1.9510    -2.7100 hn         1 CE0       0.424000
     50 H18         -6.4920     0.4160    -2.6110 h1         1 CE0       0.023700
     51 H18A        -6.0090     0.7980    -4.2730 h1         1 CE0       0.023700
     52 H18B        -6.4650    -0.8610    -3.8430 h1         1 CE0       0.023700
     53 H14         -4.4410     1.2740    -1.0800 h1         1 CE0       0.104700
     54 H15         -6.2890     0.8950     0.3410 h1         1 CE0       0.077700
     55 H15A        -6.1200    -0.7440    -0.3100 h1         1 CE0       0.077700
     56 HN18        -3.1250    -0.0960     3.6920 hn         1 CE0       0.494000
     57 HN1A        -1.8920     0.5490     2.7240 hn         1 CE0       0.494000
@<TRIPOS>BOND
     1     1     2 1   
     2     1    34 1   
     3     1    35 1   
     4     2     3 1   
     5     2     5 1   
     6     2    36 1   
     7     3     4 1   
     8     3     7 1   
     9     5     6 1   
    10     5    37 1   
    11     5    38 1   
    12     6    19 1   
    13     8     9 1   
    14     8    17 1   
    15     9    10 1   
    16     9    39 1   
    17     9    40 1   
    18    10    11 1   
    19    10    12 2   
    20    11    41 1   
    21    11    42 1   
    22    11    43 1   
    23    12    13 1   
    24    12    16 1   
    25    13    14 1   
    26    13    15 1   
    27    16    17 1   
    28    16    44 1   
    29    17    18 1   
    30    17    45 1   
    31    18    19 1   
    32    18    21 1   
    33    18    46 1   
    34    19    20 2   
    35    21    22 1   
    36    21    47 1   
    37    22    23 2   
    38    22    24 1   
    39    24    25 1   
    40    24    28 1   
    41    24    48 1   
    42    25    26 1   
    43    25    49 1   
    44    26    27 1   
    45    27    50 1   
    46    27    51 1   
    47    27    52 1   
    48    28    29 1   
    49    28    33 1   
    50    28    53 1   
    51    29    30 1   
    52    29    54 1   
    53    29    55 1   
    54    30    31 1   
    55    31    32 1   
    56    31    33 2   
    57    32    56 1   
    58    32    57 1   
@<TRIPOS>SUBSTRUCTURE
     1 CE0         1 TEMP              0 ****  ****    0 ROOT
