@<TRIPOS>MOLECULE
CE0
   57    58     1     0     0
SMALL
No Charge or Current Charge


@<TRIPOS>ATOM
      1 N            4.5750    -2.1830    -2.6610 n8         1 CE0      -0.986200
      2 CA           4.7150    -2.1470    -1.1430 c3         1 CE0      -0.004500
      3 C            5.8250    -3.0790    -0.5340 c          1 CE0       0.701000
      4 O            5.7590    -4.2810    -0.7530 o          1 CE0      -0.736000
      5 CB           3.3790    -2.4400    -0.4070 c3         1 CE0       0.196600
      6 OG           2.4240    -1.4200    -0.7580 os         1 CE0      -0.412100
      7 OXT          6.7620    -2.5570     0.0540 o          1 CE0      -0.736000
      8 S1           0.0140     0.7950     1.8310 ss         1 CE0      -0.635000
      9 C2           0.3290     2.5530     2.2520 c6         1 CE0       0.162800
     10 C3           1.6730     3.1080     1.7940 c2         1 CE0      -0.265400
     11 C5           2.1090     4.3200     2.6070 c3         1 CE0       0.012100
     12 C4           2.3760     2.5360     0.7660 ce         1 CE0       0.072800
     13 C9           3.7620     3.0230     0.2460 c          1 CE0       0.718200
     14 O4A          4.3410     3.9630     0.7750 o          1 CE0      -0.708500
     15 O4B          4.2510     2.4240    -0.7080 o          1 CE0      -0.708500
     16 N5           1.8600     1.4210     0.0330 nu         1 CE0      -0.779200
     17 C6           0.4770     0.9580     0.0630 c6         1 CE0       0.407500
     18 C7           0.2490    -0.3720    -0.7240 c3         1 CE0       0.032700
     19 C8           1.1570    -1.5240    -0.2450 c          1 CE0       0.598100
     20 O9           0.7760    -2.4570     0.4570 o          1 CE0      -0.532000
     21 N10         -1.1750    -0.8000    -0.7140 ns         1 CE0      -0.476900
     22 C11         -2.1960    -0.1240    -1.3530 c          1 CE0       0.585100
     23 O12         -1.9590     0.7750    -2.1530 o          1 CE0      -0.574100
     24 C13         -3.6350    -0.5980    -0.9690 c3         1 CE0       0.064500
     25 N16         -4.4160    -1.1750    -2.1150 n7         1 CE0      -0.633900
     26 O17         -4.7350    -0.1950    -3.1360 os         1 CE0      -0.240300
     27 C18         -5.8140    -0.5790    -4.0060 c3         1 CE0       0.152900
     28 C14         -4.4140     0.5350    -0.2280 c5         1 CE0       0.149500
     29 C15         -5.6990     0.0340     0.5070 c5         1 CE0       0.052600
     30 S16         -5.0610    -0.5770     2.1270 ss         1 CE0      -0.481200
     31 C17         -3.7810     0.5980     1.9320 c2         1 CE0       0.703100
     32 N18         -3.0140     0.6940     3.0250 nv         1 CE0      -1.009200
     33 N19         -3.5340     1.1580     0.8210 n2         1 CE0      -0.650900
     34 HN           5.4790    -1.9470    -3.0900 hn         1 CE0       0.378500
     35 HNA          4.4240    -3.1570    -2.9540 hn         1 CE0       0.378500
     36 HA           5.0070    -1.1250    -0.8620 h1         1 CE0       0.096700
     37 HB           3.0140    -3.4350    -0.6930 h1         1 CE0       0.047200
     38 HBA          3.5550    -2.4380     0.6770 h1         1 CE0       0.047200
     39 H2          -0.4780     3.1490     1.8020 h1         1 CE0       0.041200
     40 H2A          0.2320     2.6420     3.3440 h1         1 CE0       0.041200
     41 H3           1.3380     4.6430     3.3180 hc         1 CE0       0.018033
     42 H3'A         3.0120     4.1000     3.1890 hc         1 CE0       0.018033
     43 H3'B         2.3160     5.1800     1.9600 hc         1 CE0       0.018033
     44 HN5          2.4850     1.0610    -0.6940 hn         1 CE0       0.531000
     45 H6          -0.1860     1.7270    -0.3660 h2         1 CE0       0.079700
     46 H7           0.5330    -0.1800    -1.7650 h1         1 CE0       0.119700
     47 HN10        -1.4400    -1.5340    -0.0660 hn         1 CE0       0.325500
     48 H13         -3.4880    -1.4000    -0.2340 h1         1 CE0       0.076700
     49 HN16        -3.8280    -1.8740    -2.5960 hn         1 CE0       0.424000
     50 H18         -6.7370    -0.7390    -3.4330 h1         1 CE0       0.023700
     51 H18A        -6.0030     0.2070    -4.7480 h1         1 CE0       0.023700
     52 H18B        -5.5710    -1.5060    -4.5420 h1         1 CE0       0.023700
     53 H14         -4.6920     1.2950    -0.9730 h1         1 CE0       0.104700
     54 H15         -6.3900     0.8680     0.6850 h1         1 CE0       0.077700
     55 H15A        -6.2360    -0.7500    -0.0420 h1         1 CE0       0.077700
     56 HN18        -3.1590    -0.0830     3.6530 hn         1 CE0       0.494000
     57 HN1A        -2.0410     0.8450     2.7690 hn         1 CE0       0.494000
@<TRIPOS>BOND
     1     1     2 1   
     2     1    34 1   
     3     1    35 1   
     4     2     3 1   
     5     2     5 1   
     6     2    36 1   
     7     3     4 1   
     8     3     7 1   
     9     5     6 1   
    10     5    37 1   
    11     5    38 1   
    12     6    19 1   
    13     8     9 1   
    14     8    17 1   
    15     9    10 1   
    16     9    39 1   
    17     9    40 1   
    18    10    11 1   
    19    10    12 2   
    20    11    41 1   
    21    11    42 1   
    22    11    43 1   
    23    12    13 1   
    24    12    16 1   
    25    13    14 1   
    26    13    15 1   
    27    16    17 1   
    28    16    44 1   
    29    17    18 1   
    30    17    45 1   
    31    18    19 1   
    32    18    21 1   
    33    18    46 1   
    34    19    20 2   
    35    21    22 1   
    36    21    47 1   
    37    22    23 2   
    38    22    24 1   
    39    24    25 1   
    40    24    28 1   
    41    24    48 1   
    42    25    26 1   
    43    25    49 1   
    44    26    27 1   
    45    27    50 1   
    46    27    51 1   
    47    27    52 1   
    48    28    29 1   
    49    28    33 1   
    50    28    53 1   
    51    29    30 1   
    52    29    54 1   
    53    29    55 1   
    54    30    31 1   
    55    31    32 1   
    56    31    33 2   
    57    32    56 1   
    58    32    57 1   
@<TRIPOS>SUBSTRUCTURE
     1 CE0         1 TEMP              0 ****  ****    0 ROOT
