@<TRIPOS>MOLECULE
CE1
   95    94     1     0     0
SMALL
bcc


@<TRIPOS>ATOM
      1 C1          -3.1900    -0.9680    18.4790 c3         1 CE1      -0.088100
      2 C2          -3.0320    -0.0490    17.2750 c3         1 CE1      -0.075400
      3 C3          -2.2560    -0.6970    16.1340 c3         1 CE1      -0.075400
      4 C4          -2.0910     0.2140    14.9250 c3         1 CE1      -0.074400
      5 C5          -1.3230    -0.4350    13.7800 c3         1 CE1      -0.074400
      6 C6          -1.1600     0.4810    12.5740 c3         1 CE1      -0.074400
      7 C7          -0.3940    -0.1610    11.4230 c3         1 CE1      -0.074400
      8 C8          -0.2370     0.7630    10.2230 c3         1 CE1      -0.075400
      9 C9           0.5270     0.1330     9.0650 c3         1 CE1      -0.073400
     10 C10          0.6740     1.0730     7.8760 c3         1 CE1      -0.075400
     11 C11          1.4430     0.4590     6.7120 c3         1 CE1      -0.078400
     12 C12          1.5620     1.4320     5.5570 c3         1 CE1       0.138400
     13 O13          2.2960     0.8490     4.5060 os         1 CE1      -0.400600
     14 C14          2.4610     1.7230     3.4190 c3         1 CE1       0.140400
     15 C15          3.2870     1.0680     2.3420 c3         1 CE1       0.139400
     16 O16          2.5850    -0.0160     1.7890 os         1 CE1      -0.387600
     17 C17          3.2810    -0.6270     0.7330 c3         1 CE1       0.138400
     18 C18          2.4480    -1.7340     0.1410 c3         1 CE1       0.139400
     19 O19          1.3000    -1.1910    -0.4590 os         1 CE1      -0.388600
     20 C20          0.5370    -2.1480    -1.1470 c3         1 CE1       0.139400
     21 C21         -0.6660    -1.4870    -1.7700 c3         1 CE1       0.138400
     22 O22         -0.2480    -0.5530    -2.7320 os         1 CE1      -0.388600
     23 C23         -1.3250     0.0810    -3.3740 c3         1 CE1       0.138400
     24 C24         -0.8070     1.1270    -4.3270 c3         1 CE1       0.139400
     25 O25         -0.0690     0.5160    -5.3530 os         1 CE1      -0.388600
     26 C26          0.4480     1.4410    -6.2750 c3         1 CE1       0.139400
     27 C27          1.2920     0.7250    -7.2980 c3         1 CE1       0.138400
     28 O28          0.4850    -0.1130    -8.0850 os         1 CE1      -0.389600
     29 C29          1.2220    -0.8210    -9.0490 c3         1 CE1       0.138400
     30 C30          0.3010    -1.6870    -9.8680 c3         1 CE1       0.139400
     31 O31         -0.5680    -0.8810   -10.6210 os         1 CE1      -0.388600
     32 C32         -1.4010    -1.6290   -11.4700 c3         1 CE1       0.139400
     33 C33         -2.2930    -0.7040   -12.2570 c3         1 CE1       0.138400
     34 O34         -1.5160     0.1070   -13.1000 os         1 CE1      -0.386600
     35 C35         -2.2950     0.9680   -13.8910 c3         1 CE1       0.137400
     36 C36         -1.4020     1.8590   -14.7160 c3         1 CE1       0.140400
     37 O37         -0.6700     1.0790   -15.6320 oh         1 CE1      -0.585800
     38 H11         -2.2190    -1.2590    18.8830 hc         1 CE1       0.031367
     39 H12         -3.7530    -0.4900    19.2810 hc         1 CE1       0.031367
     40 H13         -3.7190    -1.8830    18.2050 hc         1 CE1       0.031367
     41 H21         -4.0190     0.2540    16.9130 hc         1 CE1       0.036700
     42 H22         -2.5260     0.8730    17.5780 hc         1 CE1       0.036700
     43 H31         -1.2690    -1.0040    16.4970 hc         1 CE1       0.036700
     44 H32         -2.7660    -1.6180    15.8300 hc         1 CE1       0.036700
     45 H41         -3.0790     0.5240    14.5670 hc         1 CE1       0.036700
     46 H42         -1.5780     1.1330    15.2290 hc         1 CE1       0.036700
     47 H51         -0.3350    -0.7470    14.1360 hc         1 CE1       0.037700
     48 H52         -1.8380    -1.3530    13.4730 hc         1 CE1       0.037700
     49 H61         -2.1490     0.7930    12.2200 hc         1 CE1       0.036700
     50 H62         -0.6460     1.3990    12.8810 hc         1 CE1       0.036700
     51 H71          0.5950    -0.4730    11.7750 hc         1 CE1       0.037700
     52 H72         -0.9090    -1.0780    11.1130 hc         1 CE1       0.037700
     53 H81         -1.2280     1.0750     9.8740 hc         1 CE1       0.036700
     54 H82          0.2760     1.6800    10.5360 hc         1 CE1       0.036700
     55 H91          1.5200    -0.1770     9.4100 hc         1 CE1       0.039200
     56 H92          0.0150    -0.7820     8.7480 hc         1 CE1       0.039200
     57 H101        -0.3200     1.3790     7.5340 hc         1 CE1       0.036700
     58 H102         1.1790     1.9900     8.2000 hc         1 CE1       0.036700
     59 H111         2.4420     0.1640     7.0470 hc         1 CE1       0.052700
     60 H112         0.9380    -0.4520     6.3770 hc         1 CE1       0.052700
     61 H121         0.5590     1.7220     5.2090 h1         1 CE1       0.017200
     62 H122         2.0530     2.3560     5.8990 h1         1 CE1       0.017200
     63 H141         1.4880     2.0300     3.0080 h1         1 CE1       0.028200
     64 H142         2.9770     2.6430     3.7270 h1         1 CE1       0.028200
     65 H151         3.5030     1.8270     1.5770 h1         1 CE1       0.027200
     66 H152         4.2540     0.7470     2.7540 h1         1 CE1       0.027200
     67 H171         3.5310     0.1050    -0.0490 h1         1 CE1       0.028200
     68 H172         4.2300    -1.0600     1.0800 h1         1 CE1       0.028200
     69 H181         3.0670    -2.2640    -0.5970 h1         1 CE1       0.028200
     70 H182         2.1830    -2.4660     0.9180 h1         1 CE1       0.028200
     71 H201         1.1370    -2.6440    -1.9240 h1         1 CE1       0.027700
     72 H202         0.1790    -2.9380    -0.4710 h1         1 CE1       0.027700
     73 H211        -1.2910    -2.2700    -2.2200 h1         1 CE1       0.027700
     74 H212        -1.2750    -1.0030    -0.9930 h1         1 CE1       0.027700
     75 H231        -1.9470    -0.6490    -3.9130 h1         1 CE1       0.027200
     76 H232        -1.9810     0.5800    -2.6470 h1         1 CE1       0.027200
     77 H241        -1.6690     1.6770    -4.7300 h1         1 CE1       0.027700
     78 H242        -0.1920     1.8570    -3.7800 h1         1 CE1       0.027700
     79 H261        -0.3590     1.9970    -6.7730 h1         1 CE1       0.027700
     80 H262         1.0840     2.1850    -5.7750 h1         1 CE1       0.027700
     81 H271         1.7960     1.4810    -7.9150 h1         1 CE1       0.028200
     82 H272         2.0810     0.1510    -6.7920 h1         1 CE1       0.028200
     83 H291         1.7730    -0.1340    -9.7080 h1         1 CE1       0.028200
     84 H292         1.9700    -1.4710    -8.5730 h1         1 CE1       0.028200
     85 H301         0.9220    -2.3160   -10.5210 h1         1 CE1       0.028200
     86 H302        -0.2590    -2.3680    -9.2110 h1         1 CE1       0.028200
     87 H321        -0.8060    -2.2490   -12.1550 h1         1 CE1       0.027700
     88 H322        -2.0420    -2.3130   -10.8970 h1         1 CE1       0.027700
     89 H331        -2.9950    -1.3220   -12.8340 h1         1 CE1       0.027200
     90 H332        -2.8990    -0.0930   -11.5720 h1         1 CE1       0.027200
     91 H351        -2.9680     0.3970   -14.5480 h1         1 CE1       0.025200
     92 H352        -2.9320     1.6100   -13.2660 h1         1 CE1       0.025200
     93 H361        -2.0480     2.5880   -15.2210 h1         1 CE1       0.024200
     94 H362        -0.7440     2.4290   -14.0470 h1         1 CE1       0.024200
     95 H37         -0.1270     1.6710   -16.1610 ho         1 CE1       0.400000
@<TRIPOS>BOND
     1     1     2 1   
     2     1    38 1   
     3     1    39 1   
     4     1    40 1   
     5     2     3 1   
     6     2    41 1   
     7     2    42 1   
     8     3     4 1   
     9     3    43 1   
    10     3    44 1   
    11     4     5 1   
    12     4    45 1   
    13     4    46 1   
    14     5     6 1   
    15     5    47 1   
    16     5    48 1   
    17     6     7 1   
    18     6    49 1   
    19     6    50 1   
    20     7     8 1   
    21     7    51 1   
    22     7    52 1   
    23     8     9 1   
    24     8    53 1   
    25     8    54 1   
    26     9    10 1   
    27     9    55 1   
    28     9    56 1   
    29    10    11 1   
    30    10    57 1   
    31    10    58 1   
    32    11    12 1   
    33    11    59 1   
    34    11    60 1   
    35    12    13 1   
    36    12    61 1   
    37    12    62 1   
    38    13    14 1   
    39    14    15 1   
    40    14    63 1   
    41    14    64 1   
    42    15    16 1   
    43    15    65 1   
    44    15    66 1   
    45    16    17 1   
    46    17    18 1   
    47    17    67 1   
    48    17    68 1   
    49    18    19 1   
    50    18    69 1   
    51    18    70 1   
    52    19    20 1   
    53    20    21 1   
    54    20    71 1   
    55    20    72 1   
    56    21    22 1   
    57    21    73 1   
    58    21    74 1   
    59    22    23 1   
    60    23    24 1   
    61    23    75 1   
    62    23    76 1   
    63    24    25 1   
    64    24    77 1   
    65    24    78 1   
    66    25    26 1   
    67    26    27 1   
    68    26    79 1   
    69    26    80 1   
    70    27    28 1   
    71    27    81 1   
    72    27    82 1   
    73    28    29 1   
    74    29    30 1   
    75    29    83 1   
    76    29    84 1   
    77    30    31 1   
    78    30    85 1   
    79    30    86 1   
    80    31    32 1   
    81    32    33 1   
    82    32    87 1   
    83    32    88 1   
    84    33    34 1   
    85    33    89 1   
    86    33    90 1   
    87    34    35 1   
    88    35    36 1   
    89    35    91 1   
    90    35    92 1   
    91    36    37 1   
    92    36    93 1   
    93    36    94 1   
    94    37    95 1   
@<TRIPOS>SUBSTRUCTURE
     1 CE1         1 TEMP              0 ****  ****    0 ROOT
