@<TRIPOS>MOLECULE
CE1
   95    94     1     0     0
SMALL
No Charge or Current Charge


@<TRIPOS>ATOM
      1 C1          -3.3040    -2.2860    18.6450 c3         1 CE1      -0.088100
      2 C2          -3.1930    -1.1850    17.5720 c3         1 CE1      -0.075400
      3 C3          -2.3420    -1.6100    16.3560 c3         1 CE1      -0.075400
      4 C4          -2.2320    -0.5060    15.2810 c3         1 CE1      -0.074400
      5 C5          -1.3800    -0.9310    14.0640 c3         1 CE1      -0.074400
      6 C6          -1.2700     0.1720    12.9890 c3         1 CE1      -0.074400
      7 C7          -0.4180    -0.2520    11.7720 c3         1 CE1      -0.074400
      8 C8          -0.3080     0.8510    10.6980 c3         1 CE1      -0.075400
      9 C9           0.5440     0.4260     9.4810 c3         1 CE1      -0.073400
     10 C10          0.6540     1.5300     8.4060 c3         1 CE1      -0.075400
     11 C11          1.5060     1.1050     7.1890 c3         1 CE1      -0.078400
     12 C12          1.6140     2.2080     6.1190 c3         1 CE1       0.161600
     13 O13          2.4220     1.7000     5.0470 os         1 CE1      -0.447000
     14 C14          2.6170     2.6230     3.9570 c3         1 CE1       0.163600
     15 C15          3.4910     1.9500     2.8720 c3         1 CE1       0.162600
     16 O16          2.7140     0.9390     2.2010 os         1 CE1      -0.434000
     17 C17          3.4250     0.2260     1.1690 c3         1 CE1       0.161600
     18 C18          2.4750    -0.8140     0.5270 c3         1 CE1       0.162600
     19 O19          1.4980    -0.1260    -0.2780 os         1 CE1      -0.435000
     20 C20          0.5420    -0.9890    -0.9250 c3         1 CE1       0.162600
     21 C21         -0.4340    -0.1270    -1.7610 c3         1 CE1       0.161600
     22 O22          0.2600     0.3810    -2.9180 os         1 CE1      -0.435000
     23 C23         -0.5430     1.2130    -3.7780 c3         1 CE1       0.161600
     24 C24          0.3160     1.6770    -4.9790 c3         1 CE1       0.162600
     25 O25          0.5410     0.5570    -5.8580 os         1 CE1      -0.435000
     26 C26          1.3430     0.8590    -7.0170 c3         1 CE1       0.162600
     27 C27          1.4950    -0.4200    -7.8740 c3         1 CE1       0.161600
     28 O28          0.2370    -0.7100    -8.5150 os         1 CE1      -0.436000
     29 C29          0.2450    -1.8930    -9.3380 c3         1 CE1       0.161600
     30 C30         -1.1550    -2.0780    -9.9710 c3         1 CE1       0.162600
     31 O31         -1.3500    -1.0730   -10.9870 os         1 CE1      -0.435000
     32 C32         -2.6300    -1.1310   -11.6470 c3         1 CE1       0.162600
     33 C33         -2.7000    -0.0120   -12.7130 c3         1 CE1       0.161600
     34 O34         -1.8410    -0.3570   -13.8180 os         1 CE1      -0.433000
     35 C35         -1.8100     0.6210   -14.8770 c3         1 CE1       0.160600
     36 C36         -0.8610     0.1270   -16.0030 c3         1 CE1       0.163600
     37 O37         -1.3950    -1.0260   -16.6830 oh         1 CE1      -0.708000
     38 H11         -2.3130    -2.5550    19.0290 hc         1 CE1       0.031367
     39 H12         -3.9160    -1.9390    19.4860 hc         1 CE1       0.031367
     40 H13         -3.7720    -3.1870    18.2290 hc         1 CE1       0.031367
     41 H21         -4.2010    -0.9140    17.2350 hc         1 CE1       0.036700
     42 H22         -2.7560    -0.2880    18.0270 hc         1 CE1       0.036700
     43 H31         -1.3360    -1.8820    16.6980 hc         1 CE1       0.036700
     44 H32         -2.7820    -2.5090    15.9050 hc         1 CE1       0.036700
     45 H41         -3.2380    -0.2340    14.9390 hc         1 CE1       0.036700
     46 H42         -1.7920     0.3930    15.7310 hc         1 CE1       0.036700
     47 H51         -0.3740    -1.2030    14.4060 hc         1 CE1       0.037700
     48 H52         -1.8200    -1.8300    13.6130 hc         1 CE1       0.037700
     49 H61         -2.2760     0.4440    12.6470 hc         1 CE1       0.036700
     50 H62         -0.8300     1.0710    13.4400 hc         1 CE1       0.036700
     51 H71          0.5880    -0.5240    12.1140 hc         1 CE1       0.037700
     52 H72         -0.8580    -1.1510    11.3220 hc         1 CE1       0.037700
     53 H81         -1.3140     1.1230    10.3550 hc         1 CE1       0.036700
     54 H82          0.1320     1.7500    11.1480 hc         1 CE1       0.036700
     55 H91          1.5500     0.1540     9.8230 hc         1 CE1       0.039200
     56 H92          0.1050    -0.4730     9.0300 hc         1 CE1       0.039200
     57 H101        -0.3520     1.8020     8.0640 hc         1 CE1       0.036700
     58 H102         1.0930     2.4290     8.8560 hc         1 CE1       0.036700
     59 H111         2.5140     0.8370     7.5280 hc         1 CE1       0.052700
     60 H112         1.0670     0.2090     6.7350 hc         1 CE1       0.052700
     61 H121         0.6110     2.4700     5.7570 h1         1 CE1       0.017200
     62 H122         2.0720     3.1040     6.5580 h1         1 CE1       0.017200
     63 H141         1.6560     2.9250     3.5190 h1         1 CE1       0.028200
     64 H142         3.1290     3.5270     4.3130 h1         1 CE1       0.028200
     65 H151         3.8180     2.7150     2.1550 h1         1 CE1       0.027200
     66 H152         4.3850     1.5150     3.3380 h1         1 CE1       0.027200
     67 H171         3.7920     0.9140     0.3960 h1         1 CE1       0.028200
     68 H172         4.2880    -0.3000     1.5970 h1         1 CE1       0.028200
     69 H181         3.0680    -1.4960    -0.0970 h1         1 CE1       0.028200
     70 H182         1.9910    -1.4050     1.3160 h1         1 CE1       0.028200
     71 H201         1.0440    -1.7150    -1.5780 h1         1 CE1       0.027700
     72 H202        -0.0330    -1.5470    -0.1740 h1         1 CE1       0.027700
     73 H211        -1.2810    -0.7530    -2.0720 h1         1 CE1       0.027700
     74 H212        -0.8220     0.6920    -1.1430 h1         1 CE1       0.027700
     75 H231        -1.4230     0.6680    -4.1450 h1         1 CE1       0.027200
     76 H232        -0.8930     2.0980    -3.2310 h1         1 CE1       0.027200
     77 H241        -0.2190     2.4740    -5.5100 h1         1 CE1       0.027700
     78 H242         1.2660     2.0880    -4.6130 h1         1 CE1       0.027700
     79 H261         0.8830     1.6530    -7.6200 h1         1 CE1       0.027700
     80 H262         2.3410     1.1990    -6.7090 h1         1 CE1       0.027700
     81 H271         2.2740    -0.2500    -8.6280 h1         1 CE1       0.028200
     82 H272         1.8140    -1.2550    -7.2350 h1         1 CE1       0.028200
     83 H291         0.9990    -1.8160   -10.1320 h1         1 CE1       0.028200
     84 H292         0.4770    -2.7770    -8.7300 h1         1 CE1       0.028200
     85 H301        -1.2140    -3.0810   -10.4140 h1         1 CE1       0.028200
     86 H302        -1.9240    -2.0030    -9.1910 h1         1 CE1       0.028200
     87 H321        -2.7820    -2.1070   -12.1280 h1         1 CE1       0.027700
     88 H322        -3.4380    -0.9790   -10.9200 h1         1 CE1       0.027700
     89 H331        -3.7390     0.0850   -13.0560 h1         1 CE1       0.027200
     90 H332        -2.4000     0.9430   -12.2630 h1         1 CE1       0.027200
     91 H351        -2.8140     0.7840   -15.2900 h1         1 CE1       0.025200
     92 H352        -1.4380     1.5810   -14.4970 h1         1 CE1       0.025200
     93 H361        -0.7170     0.9480   -16.7190 h1         1 CE1       0.024200
     94 H362         0.1200    -0.1030   -15.5660 h1         1 CE1       0.024200
     95 H37         -0.7140    -1.3140   -17.3350 ho         1 CE1       0.499000
@<TRIPOS>BOND
     1     1     2 1   
     2     1    38 1   
     3     1    39 1   
     4     1    40 1   
     5     2     3 1   
     6     2    41 1   
     7     2    42 1   
     8     3     4 1   
     9     3    43 1   
    10     3    44 1   
    11     4     5 1   
    12     4    45 1   
    13     4    46 1   
    14     5     6 1   
    15     5    47 1   
    16     5    48 1   
    17     6     7 1   
    18     6    49 1   
    19     6    50 1   
    20     7     8 1   
    21     7    51 1   
    22     7    52 1   
    23     8     9 1   
    24     8    53 1   
    25     8    54 1   
    26     9    10 1   
    27     9    55 1   
    28     9    56 1   
    29    10    11 1   
    30    10    57 1   
    31    10    58 1   
    32    11    12 1   
    33    11    59 1   
    34    11    60 1   
    35    12    13 1   
    36    12    61 1   
    37    12    62 1   
    38    13    14 1   
    39    14    15 1   
    40    14    63 1   
    41    14    64 1   
    42    15    16 1   
    43    15    65 1   
    44    15    66 1   
    45    16    17 1   
    46    17    18 1   
    47    17    67 1   
    48    17    68 1   
    49    18    19 1   
    50    18    69 1   
    51    18    70 1   
    52    19    20 1   
    53    20    21 1   
    54    20    71 1   
    55    20    72 1   
    56    21    22 1   
    57    21    73 1   
    58    21    74 1   
    59    22    23 1   
    60    23    24 1   
    61    23    75 1   
    62    23    76 1   
    63    24    25 1   
    64    24    77 1   
    65    24    78 1   
    66    25    26 1   
    67    26    27 1   
    68    26    79 1   
    69    26    80 1   
    70    27    28 1   
    71    27    81 1   
    72    27    82 1   
    73    28    29 1   
    74    29    30 1   
    75    29    83 1   
    76    29    84 1   
    77    30    31 1   
    78    30    85 1   
    79    30    86 1   
    80    31    32 1   
    81    32    33 1   
    82    32    87 1   
    83    32    88 1   
    84    33    34 1   
    85    33    89 1   
    86    33    90 1   
    87    34    35 1   
    88    35    36 1   
    89    35    91 1   
    90    35    92 1   
    91    36    37 1   
    92    36    93 1   
    93    36    94 1   
    94    37    95 1   
@<TRIPOS>SUBSTRUCTURE
     1 CE1         1 TEMP              0 ****  ****    0 ROOT
