@<TRIPOS>MOLECULE
CE2
   31    31     1     0     0
SMALL
abcg2


@<TRIPOS>ATOM
      1 C12         -1.0630     2.4010    -0.9460 c3         1 CE2      -0.080100
      2 C7          -1.9970     1.6240    -0.0080 c3         1 CE2      -0.079300
      3 C5          -1.6230     0.1640    -0.0370 cc         1 CE2       0.198300
      4 C3          -0.4690    -0.4980     0.2140 cd         1 CE2      -0.329300
      5 C2          -0.7990    -1.8900    -0.0150 cd         1 CE2       0.767000
      6 O4           0.0120    -2.8760     0.0710 o          1 CE2      -0.877000
      7 N1          -2.0690    -2.0050    -0.3590 nc         1 CE2      -0.551300
      8 O8          -2.5770    -0.7120    -0.3660 os         1 CE2      -0.123700
      9 C6           0.8730    -0.0090     0.6510 c3         1 CE2       0.017900
     10 C11          1.9780    -0.2230    -0.3860 c3         1 CE2      -0.042700
     11 C25          3.2880     0.4730     0.0600 c          1 CE2       0.711000
     12 O28          3.2550     1.7120     0.0560 o          1 CE2      -0.702500
     13 O27          4.2240    -0.2740     0.4050 o          1 CE2      -0.702500
     14 N24          2.2230    -1.6770    -0.5760 nz         1 CE2      -1.040000
     15 C13         -1.8470     2.1540     1.4250 c3         1 CE2      -0.080100
     16 C14         -3.4420     1.8450    -0.4640 c3         1 CE2      -0.080100
     17 H121        -0.0130     2.2900    -0.6720 hc         1 CE2       0.034589
     18 H122        -1.1750     2.0670    -1.9790 hc         1 CE2       0.034589
     19 H123        -1.3030     3.4650    -0.9110 hc         1 CE2       0.034589
     20 H61          0.8450     1.0540     0.8790 hc         1 CE2       0.059700
     21 H62          1.1680    -0.5080     1.5810 hc         1 CE2       0.059700
     22 H11          1.6550     0.1840    -1.3450 hx         1 CE2       0.066700
     23 H241         1.3570    -2.2800    -0.3100 hn         1 CE2       0.498333
     24 H242         2.4900    -1.8870    -1.5340 hn         1 CE2       0.498333
     25 H243         3.0250    -1.9260     0.0090 hn         1 CE2       0.498333
     26 H131        -2.1180     3.2100     1.4640 hc         1 CE2       0.034589
     27 H132        -2.4940     1.6140     2.1170 hc         1 CE2       0.034589
     28 H133        -0.8230     2.0640     1.7890 hc         1 CE2       0.034589
     29 H141        -3.6040     1.5170    -1.4910 hc         1 CE2       0.034589
     30 H142        -4.1620     1.3330     0.1750 hc         1 CE2       0.034589
     31 H143        -3.6660     2.9130    -0.4220 hc         1 CE2       0.034589
@<TRIPOS>BOND
     1     1     2 1   
     2     1    17 1   
     3     1    18 1   
     4     1    19 1   
     5     2     3 1   
     6     2    15 1   
     7     2    16 1   
     8     3     4 2   
     9     3     8 1   
    10     4     5 1   
    11     4     9 1   
    12     5     6 1   
    13     5     7 2   
    14     7     8 1   
    15     9    10 1   
    16     9    20 1   
    17     9    21 1   
    18    10    11 1   
    19    10    14 1   
    20    10    22 1   
    21    11    12 1   
    22    11    13 1   
    23    14    23 1   
    24    14    24 1   
    25    14    25 1   
    26    15    26 1   
    27    15    27 1   
    28    15    28 1   
    29    16    29 1   
    30    16    30 1   
    31    16    31 1   
@<TRIPOS>SUBSTRUCTURE
     1 CE2         1 TEMP              0 ****  ****    0 ROOT
