@<TRIPOS>MOLECULE
CE2
   31    31     1     0     0
SMALL
No Charge or Current Charge


@<TRIPOS>ATOM
      1 C12         -1.0230     2.3980    -0.9170 c3         1 CE2      -0.080100
      2 C7          -1.9910     1.6260     0.0200 c3         1 CE2      -0.079300
      3 C5          -1.6730     0.1290     0.0030 cc         1 CE2       0.198300
      4 C3          -0.5260    -0.5860     0.2460 cd         1 CE2      -0.329300
      5 C2          -0.8960    -1.9300     0.0240 cd         1 CE2       0.767000
      6 O4          -0.0600    -2.8210     0.1260 o          1 CE2      -0.877000
      7 N1          -2.1530    -2.0890    -0.3200 nc         1 CE2      -0.551300
      8 O8          -2.6780    -0.7560    -0.3310 os         1 CE2      -0.123700
      9 C6           0.8710    -0.0780     0.6630 c3         1 CE2       0.017900
     10 C11          2.0230    -0.2140    -0.3950 c3         1 CE2      -0.042700
     11 C25          3.2990     0.5850     0.0590 c          1 CE2       0.711000
     12 O28          3.4840     1.6920    -0.4230 o          1 CE2      -0.702500
     13 O27          4.1230    -0.0020     0.7490 o          1 CE2      -0.702500
     14 N24          2.2900    -1.6950    -0.6680 nz         1 CE2      -1.040000
     15 C13         -1.8880     2.1760     1.4680 c3         1 CE2      -0.080100
     16 C14         -3.4400     1.8910    -0.4850 c3         1 CE2      -0.080100
     17 H121         0.0150     2.3410    -0.5760 hc         1 CE2       0.034589
     18 H122        -1.0640     1.9920    -1.9350 hc         1 CE2       0.034589
     19 H123        -1.2910     3.4610    -0.9680 hc         1 CE2       0.034589
     20 H61          0.8200     0.9710     0.9660 hc         1 CE2       0.059700
     21 H62          1.1830    -0.6090     1.5720 hc         1 CE2       0.059700
     22 H11          1.6890     0.2490    -1.3270 hx         1 CE2       0.066700
     23 H241         1.4350    -2.2710    -0.4930 hn         1 CE2       0.498333
     24 H242         2.6130    -1.9010    -1.6240 hn         1 CE2       0.498333
     25 H243         3.0070    -2.0760    -0.0320 hn         1 CE2       0.498333
     26 H131        -2.1520     3.2400     1.5030 hc         1 CE2       0.034589
     27 H132        -2.5710     1.6370     2.1360 hc         1 CE2       0.034589
     28 H133        -0.8760     2.0740     1.8730 hc         1 CE2       0.034589
     29 H141        -3.5720     1.5250    -1.5110 hc         1 CE2       0.034589
     30 H142        -4.1800     1.3940     0.1540 hc         1 CE2       0.034589
     31 H143        -3.6680     2.9640    -0.4830 hc         1 CE2       0.034589
@<TRIPOS>BOND
     1     1     2 1   
     2     1    17 1   
     3     1    18 1   
     4     1    19 1   
     5     2     3 1   
     6     2    15 1   
     7     2    16 1   
     8     3     4 2   
     9     3     8 1   
    10     4     5 1   
    11     4     9 1   
    12     5     6 1   
    13     5     7 2   
    14     7     8 1   
    15     9    10 1   
    16     9    20 1   
    17     9    21 1   
    18    10    11 1   
    19    10    14 1   
    20    10    22 1   
    21    11    12 1   
    22    11    13 1   
    23    14    23 1   
    24    14    24 1   
    25    14    25 1   
    26    15    26 1   
    27    15    27 1   
    28    15    28 1   
    29    16    29 1   
    30    16    30 1   
    31    16    31 1   
@<TRIPOS>SUBSTRUCTURE
     1 CE2         1 TEMP              0 ****  ****    0 ROOT
