@<TRIPOS>MOLECULE
CE4
   40    41     1     0     0
SMALL
bcc


@<TRIPOS>ATOM
      1 C01          5.2700    -1.4500    -0.4480 c2         1 CE4      -0.215000
      2 C02          4.2240    -0.6280    -0.5580 ce         1 CE4      -0.175800
      3 C03          4.4020     0.8090    -0.9360 c6         1 CE4       0.016900
      4 C05          1.8570     1.1270    -0.2140 c6         1 CE4       0.228600
      5 C06          0.8200     1.5820     0.8220 c3         1 CE4      -0.015300
      6 C10         -2.7790     0.4820     0.6150 ce         1 CE4       0.305300
      7 C13         -5.1300     2.8720    -0.1230 c3         1 CE4       0.137700
      8 C14         -2.7440    -0.9870     0.5670 cc         1 CE4       0.393000
      9 C15         -3.7780    -1.7880     0.9230 cd         1 CE4      -0.217400
     10 C17         -1.7530    -2.9080     0.1270 cd         1 CE4       0.796300
     11 C20          0.7600     3.1320     0.8150 c          1 CE4       0.939600
     12 C24          2.8230    -1.0700    -0.3870 ce         1 CE4       0.405600
     13 C25          2.4830    -2.5580    -0.3170 c          1 CE4       0.867300
     14 N07         -0.4370     0.9730     0.4520 ns         1 CE4      -0.496900
     15 N11         -3.8830     1.0250     0.2810 n2         1 CE4      -0.455200
     16 N18         -0.8210    -3.7850    -0.2460 nv         1 CE4      -0.967500
     17 N19         -1.6100    -1.6130     0.1250 nc         1 CE4      -0.729000
     18 N23          1.8190    -0.2970    -0.3030 n2         1 CE4      -0.592900
     19 O09         -1.6660     2.0500     2.0220 o          1 CE4      -0.601100
     20 O12         -3.8990     2.3730     0.3690 os         1 CE4      -0.131300
     21 O21          0.1430     3.6550    -0.1260 o          1 CE4      -0.827300
     22 O22          1.4000     3.6970     1.7210 o          1 CE4      -0.827300
     23 O26          1.7040    -2.9870    -1.1940 o          1 CE4      -0.826800
     24 O27          2.9850    -3.1790     0.6300 o          1 CE4      -0.826800
     25 S04          3.4750     1.8590     0.2160 ss         1 CE4      -0.333200
     26 S16         -3.3260    -3.4400     0.6920 ss         1 CE4      -0.417300
     27 H1           5.1660    -2.4880    -0.1710 ha         1 CE4       0.106500
     28 H2           6.2750    -1.0880    -0.6240 ha         1 CE4       0.106500
     29 H5           5.4490     1.1070    -0.8910 h1         1 CE4       0.049700
     30 H6           4.0470     0.9980    -1.9520 h1         1 CE4       0.049700
     31 H7           1.5520     1.5290    -1.1880 h2         1 CE4       0.091700
     32 H8           1.1410     1.2290     1.8090 h1         1 CE4       0.053700
     33 H9          -5.9790     2.4700     0.4340 h1         1 CE4       0.021700
     34 H10         -5.0940     3.9500     0.0130 h1         1 CE4       0.021700
     35 H11         -5.2610     2.6510    -1.1840 h1         1 CE4       0.021700
     36 H12         -4.7430    -1.5140     1.3160 h4         1 CE4       0.167000
     37 H14         -0.3920     0.0980    -0.0650 hn         1 CE4       0.353500
     38 H15          0.0870    -3.4650    -0.6040 hn         1 CE4       0.474800
     39 H16         -1.0240    -4.7680    -0.2810 hn         1 CE4       0.474800
     40 C08         -1.5680     1.2530     1.1030 c          1 CE4       0.571800
@<TRIPOS>BOND
     1     1     2 2   
     2     1    27 1   
     3     1    28 1   
     4     2     3 1   
     5     2    12 1   
     6     3    25 1   
     7     3    29 1   
     8     3    30 1   
     9     4     5 1   
    10     4    18 1   
    11     4    25 1   
    12     4    31 1   
    13     5    11 1   
    14     5    14 1   
    15     5    32 1   
    16     6     8 1   
    17     6    15 2   
    18     6    40 1   
    19     7    20 1   
    20     7    33 1   
    21     7    34 1   
    22     7    35 1   
    23     8     9 2   
    24     8    17 1   
    25     9    26 1   
    26     9    36 1   
    27    10    16 1   
    28    10    17 2   
    29    10    26 1   
    30    11    21 1   
    31    11    22 1   
    32    12    13 1   
    33    12    18 2   
    34    13    23 1   
    35    13    24 1   
    36    14    37 1   
    37    14    40 1   
    38    15    20 1   
    39    16    38 1   
    40    16    39 1   
    41    19    40 2   
@<TRIPOS>SUBSTRUCTURE
     1 CE4         1 TEMP              0 ****  ****    0 ROOT
