@<TRIPOS>MOLECULE
CE4
   40    41     1     0     0
SMALL
No Charge or Current Charge


@<TRIPOS>ATOM
      1 C01          4.2070    -0.2780     1.4580 c2         1 CE4      -0.315000
      2 C02          3.8320    -0.3170     0.1560 ce         1 CE4      -0.175800
      3 C03          4.5670     0.5140    -0.8930 c6         1 CE4       0.064800
      4 C05          1.8250     0.8390    -1.4500 c6         1 CE4       0.276500
      5 C06          1.0290     1.4320    -0.2450 c3         1 CE4      -0.015300
      6 C10         -2.3930     0.2040     1.1660 ce         1 CE4       0.305300
      7 C13         -4.7230     2.8330     1.4760 c3         1 CE4       0.160900
      8 C14         -2.6220    -1.0390     0.3940 cc         1 CE4       0.327700
      9 C15         -3.8530    -1.5060    -0.0300 cd         1 CE4      -0.279000
     10 C17         -2.0030    -2.9300    -0.5360 cd         1 CE4       0.796300
     11 C20          0.7190     2.9350    -0.5000 c          1 CE4       0.729000
     12 C24          2.7190    -1.1480    -0.3900 ce         1 CE4       0.405600
     13 C25          2.4980    -2.6230     0.0510 c          1 CE4       0.656700
     14 N07         -0.2330     0.6920     0.0440 ns         1 CE4      -0.429900
     15 N11         -3.4270     0.8890     1.5820 n2         1 CE4      -0.356700
     16 N18         -1.1210    -3.8670    -0.8390 nv         1 CE4      -1.077900
     17 N19         -1.5660    -1.8800     0.0970 nc         1 CE4      -0.729000
     18 N23          1.9580    -0.6240    -1.3230 n2         1 CE4      -0.592900
     19 O09         -0.6480     1.6290     2.0670 o          1 CE4      -0.601100
     20 O12         -3.5680     2.1480     0.9620 os         1 CE4      -0.253000
     21 O21         -0.0200     3.2250    -1.4330 o          1 CE4      -0.722000
     22 O22          1.1760     3.7710     0.2710 o          1 CE4      -0.722000
     23 O26          1.5910    -3.2790    -0.4590 o          1 CE4      -0.721500
     24 O27          3.2520    -3.1340     0.8760 o          1 CE4      -0.721500
     25 S04          3.4270     1.7350    -1.6690 ss         1 CE4      -0.429000
     26 S16         -3.7090    -3.0360    -0.8790 ss         1 CE4      -0.272400
     27 H1           3.6950    -0.8620     2.2230 ha         1 CE4       0.156500
     28 H2           5.0340     0.3460     1.7990 ha         1 CE4       0.156500
     29 H5           5.4160     1.0570    -0.4540 h1         1 CE4       0.049700
     30 H6           4.9520    -0.1440    -1.6840 h1         1 CE4       0.049700
     31 H7           1.2420     1.0510    -2.3600 h2         1 CE4       0.091700
     32 H8           1.6660     1.3710     0.6460 h1         1 CE4       0.053700
     33 H9          -4.6310     2.9950     2.5580 h1         1 CE4       0.021700
     34 H10         -4.8300     3.8110     0.9920 h1         1 CE4       0.021700
     35 H11         -5.6360     2.2550     1.2850 h1         1 CE4       0.021700
     36 H12         -4.8200    -1.0360     0.1070 h4         1 CE4       0.149000
     37 H14         -0.5410    -0.0160    -0.6170 hn         1 CE4       0.353500
     38 H15         -0.1490    -3.5690    -0.7090 hn         1 CE4       0.530000
     39 H16         -1.3040    -4.4020    -1.6750 hn         1 CE4       0.530000
     40 C08         -1.0180     0.8670     1.1750 c          1 CE4       0.504800
@<TRIPOS>BOND
     1     1     2 2   
     2     1    27 1   
     3     1    28 1   
     4     2     3 1   
     5     2    12 1   
     6     3    25 1   
     7     3    29 1   
     8     3    30 1   
     9     4     5 1   
    10     4    18 1   
    11     4    25 1   
    12     4    31 1   
    13     5    11 1   
    14     5    14 1   
    15     5    32 1   
    16     6     8 1   
    17     6    15 2   
    18     6    40 1   
    19     7    20 1   
    20     7    33 1   
    21     7    34 1   
    22     7    35 1   
    23     8     9 2   
    24     8    17 1   
    25     9    26 1   
    26     9    36 1   
    27    10    16 1   
    28    10    17 2   
    29    10    26 1   
    30    11    21 1   
    31    11    22 1   
    32    12    13 1   
    33    12    18 2   
    34    13    23 1   
    35    13    24 1   
    36    14    37 1   
    37    14    40 1   
    38    15    20 1   
    39    16    38 1   
    40    16    39 1   
    41    19    40 2   
@<TRIPOS>SUBSTRUCTURE
     1 CE4         1 TEMP              0 ****  ****    0 ROOT
