@<TRIPOS>MOLECULE
CE9
  102   101     1     0     0
SMALL
No Charge or Current Charge


@<TRIPOS>ATOM
      1 C1           4.8730    10.7370     0.9110 c3         1 CE9      -0.088100
      2 C2           5.8550     9.8310     1.6790 c3         1 CE9      -0.075400
      3 C3           5.3320     9.4170     3.0720 c3         1 CE9      -0.076400
      4 C4           6.3140     8.5030     3.8370 c3         1 CE9      -0.075400
      5 C5           5.7690     8.0470     5.2080 c3         1 CE9      -0.076400
      6 C6           6.7330     7.1050     5.9610 c3         1 CE9      -0.074400
      7 C7           6.2120     6.7020     7.3580 c3         1 CE9      -0.076400
      8 C8           7.1830     5.7760     8.1200 c3         1 CE9      -0.075400
      9 C9           6.7080     5.4480     9.5530 c3         1 CE9      -0.072400
     10 C10          7.6910     4.5330    10.3160 c3         1 CE9      -0.077400
     11 C11          7.2630     4.2590    11.7780 c3         1 CE9      -0.071400
     12 C12          8.2530     3.3580    12.5480 c3         1 CE9       0.164600
     13 O13          8.2370     2.0620    11.9340 os         1 CE9      -0.444000
     14 C14          9.2470     1.1500    12.4070 c3         1 CE9       0.164600
     15 C15          9.1210    -0.1760    11.6190 c3         1 CE9       0.163600
     16 O16          9.4410     0.0750    10.2360 os         1 CE9      -0.437000
     17 C17          9.2460    -1.0500     9.3580 c3         1 CE9       0.163600
     18 C18          9.4450    -0.5850     7.8950 c3         1 CE9       0.162600
     19 O19          8.3520     0.2840     7.5340 os         1 CE9      -0.428000
     20 C20          8.3780     0.7520     6.1710 c3         1 CE9       0.162600
     21 C21          7.1640     1.6840     5.9340 c3         1 CE9       0.163600
     22 O22          5.9530     0.9060     6.0080 os         1 CE9      -0.430000
     23 C23          4.7480     1.6430     5.7250 c3         1 CE9       0.162600
     24 C24          3.5240     0.7230     5.9490 c3         1 CE9       0.162600
     25 O25          3.5270    -0.3220     4.9560 os         1 CE9      -0.427000
     26 C26          2.3910    -1.2080     5.0140 c3         1 CE9       0.164600
     27 C27          2.5560    -2.3150     3.9440 c3         1 CE9       0.162600
     28 O28          2.4620    -1.7210     2.6350 os         1 CE9      -0.429000
     29 C29          2.6260    -2.6440     1.5410 c3         1 CE9       0.162600
     30 C30          2.6910    -1.8400     0.2210 c3         1 CE9       0.163600
     31 O31          3.9470    -1.1350     0.1770 os         1 CE9      -0.431000
     32 C32          4.0980    -0.2300    -0.9330 c3         1 CE9       0.163600
     33 C33          5.4550     0.5010    -0.7950 c3         1 CE9       0.162600
     34 O34          5.4020     1.3640     0.3580 os         1 CE9      -0.427000
     35 C35          6.6180     2.0870     0.6290 c3         1 CE9       0.162600
     36 C36          6.4320     2.9020     1.9310 c3         1 CE9       0.164600
     37 O37          5.4740     3.9530     1.6900 os         1 CE9      -0.457000
     38 C38          5.1930     4.7860     2.8340 c3         1 CE9       0.114600
     39 C39          4.1290     5.8250     2.4070 c3         1 CE9       0.165600
     40 OXT          3.1770     5.1860     1.5480 oh         1 CE9      -0.720000
     41 H11          4.6840    11.6630     1.4680 hc         1 CE9       0.032033
     42 H12          5.2860    11.0040    -0.0690 hc         1 CE9       0.032033
     43 H13          3.9160    10.2260     0.7530 hc         1 CE9       0.032033
     44 H21          6.0490     8.9310     1.0810 hc         1 CE9       0.036700
     45 H22          6.8120    10.3540     1.7900 hc         1 CE9       0.036700
     46 H31          4.3710     8.9020     2.9560 hc         1 CE9       0.037200
     47 H32          5.1410    10.3190     3.6680 hc         1 CE9       0.037200
     48 H41          7.2600     9.0370     3.9860 hc         1 CE9       0.036200
     49 H42          6.5400     7.6220     3.2250 hc         1 CE9       0.036200
     50 H51          5.5730     8.9320     5.8260 hc         1 CE9       0.037700
     51 H52          4.8070     7.5380     5.0670 hc         1 CE9       0.037700
     52 H61          7.7060     7.6010     6.0710 hc         1 CE9       0.035200
     53 H62          6.8990     6.2010     5.3620 hc         1 CE9       0.035200
     54 H71          5.2420     6.2010     7.2530 hc         1 CE9       0.037700
     55 H72          6.0410     7.6100     7.9510 hc         1 CE9       0.037700
     56 H81          8.1690     6.2550     8.1720 hc         1 CE9       0.036700
     57 H82          7.3100     4.8430     7.5560 hc         1 CE9       0.036700
     58 H91          6.5810     6.3840    10.1110 hc         1 CE9       0.034700
     59 H92          5.7250     4.9640     9.5080 hc         1 CE9       0.034700
     60 H101         8.6860     4.9940    10.3160 hc         1 CE9       0.051200
     61 H102         7.7820     3.5810     9.7760 hc         1 CE9       0.051200
     62 H111         6.2690     3.7970    11.7940 hc         1 CE9       0.043700
     63 H112         7.1770     5.2130    12.3110 hc         1 CE9       0.043700
     64 H121         7.9480     3.2890    13.6010 h1         1 CE9       0.017700
     65 H122         9.2570     3.8010    12.5060 h1         1 CE9       0.017700
     66 H141        10.2520     1.5670    12.2630 h1         1 CE9       0.024200
     67 H142         9.1090     0.9470    13.4770 h1         1 CE9       0.024200
     68 H151         8.0990    -0.5620    11.7220 h1         1 CE9       0.027200
     69 H152         9.8120    -0.9160    12.0440 h1         1 CE9       0.027200
     70 H171         9.9710    -1.8420     9.5870 h1         1 CE9       0.027700
     71 H172         8.2370    -1.4670     9.4700 h1         1 CE9       0.027700
     72 H181         9.4620    -1.4670     7.2420 h1         1 CE9       0.025200
     73 H182        10.4080    -0.0680     7.7980 h1         1 CE9       0.025200
     74 H201         9.3000     1.3150     5.9790 h1         1 CE9       0.025200
     75 H202         8.3370    -0.0900     5.4670 h1         1 CE9       0.025200
     76 H211         7.2620     2.1450     4.9430 h1         1 CE9       0.023700
     77 H212         7.1620     2.4840     6.6850 h1         1 CE9       0.023700
     78 H231         4.6650     2.5100     6.3940 h1         1 CE9       0.027200
     79 H232         4.7470     2.0090     4.6900 h1         1 CE9       0.027200
     80 H241         2.6110     1.3260     5.8650 h1         1 CE9       0.028200
     81 H242         3.5630     0.3010     6.9620 h1         1 CE9       0.028200
     82 H261         2.3260    -1.6800     6.0030 h1         1 CE9       0.025200
     83 H262         1.4560    -0.6600     4.8350 h1         1 CE9       0.025200
     84 H271         1.7640    -3.0640     4.0810 h1         1 CE9       0.025700
     85 H272         3.5250    -2.8120     4.0820 h1         1 CE9       0.025700
     86 H291         3.5470    -3.2320     1.6530 h1         1 CE9       0.025200
     87 H292         1.7780    -3.3400     1.4990 h1         1 CE9       0.025200
     88 H301         1.8440    -1.1430     0.1760 h1         1 CE9       0.026200
     89 H302         2.6120    -2.5310    -0.6290 h1         1 CE9       0.026200
     90 H321         4.0810    -0.7820    -1.8820 h1         1 CE9       0.026700
     91 H322         3.2860     0.5100    -0.9520 h1         1 CE9       0.026700
     92 H331         5.6390     1.0890    -1.7040 h1         1 CE9       0.025200
     93 H332         6.2610    -0.2390    -0.6960 h1         1 CE9       0.025200
     94 H351         7.4540     1.3890     0.7660 h1         1 CE9       0.025700
     95 H352         6.8670     2.7630    -0.1990 h1         1 CE9       0.025700
     96 H361         7.3990     3.3280     2.2270 h1         1 CE9       0.030700
     97 H362         6.0910     2.2350     2.7330 h1         1 CE9       0.030700
     98 H381         4.7970     4.1830     3.6620 h1         1 CE9       0.029200
     99 H382         6.0980     5.2990     3.1830 h1         1 CE9       0.029200
    100 H391         4.6320     6.6420     1.8720 h1         1 CE9       0.044200
    101 H392         3.6440     6.2500     3.2960 h1         1 CE9       0.044200
    102 HXT          3.7000     4.4410     1.1570 ho         1 CE9       0.520000
@<TRIPOS>BOND
     1     1     2 1   
     2     1    41 1   
     3     1    42 1   
     4     1    43 1   
     5     2     3 1   
     6     2    44 1   
     7     2    45 1   
     8     3     4 1   
     9     3    46 1   
    10     3    47 1   
    11     4     5 1   
    12     4    48 1   
    13     4    49 1   
    14     5     6 1   
    15     5    50 1   
    16     5    51 1   
    17     6     7 1   
    18     6    52 1   
    19     6    53 1   
    20     7     8 1   
    21     7    54 1   
    22     7    55 1   
    23     8     9 1   
    24     8    56 1   
    25     8    57 1   
    26     9    10 1   
    27     9    58 1   
    28     9    59 1   
    29    10    11 1   
    30    10    60 1   
    31    10    61 1   
    32    11    12 1   
    33    11    62 1   
    34    11    63 1   
    35    12    13 1   
    36    12    64 1   
    37    12    65 1   
    38    13    14 1   
    39    14    15 1   
    40    14    66 1   
    41    14    67 1   
    42    15    16 1   
    43    15    68 1   
    44    15    69 1   
    45    16    17 1   
    46    17    18 1   
    47    17    70 1   
    48    17    71 1   
    49    18    19 1   
    50    18    72 1   
    51    18    73 1   
    52    19    20 1   
    53    20    21 1   
    54    20    74 1   
    55    20    75 1   
    56    21    22 1   
    57    21    76 1   
    58    21    77 1   
    59    22    23 1   
    60    23    24 1   
    61    23    78 1   
    62    23    79 1   
    63    24    25 1   
    64    24    80 1   
    65    24    81 1   
    66    25    26 1   
    67    26    27 1   
    68    26    82 1   
    69    26    83 1   
    70    27    28 1   
    71    27    84 1   
    72    27    85 1   
    73    28    29 1   
    74    29    30 1   
    75    29    86 1   
    76    29    87 1   
    77    30    31 1   
    78    30    88 1   
    79    30    89 1   
    80    31    32 1   
    81    32    33 1   
    82    32    90 1   
    83    32    91 1   
    84    33    34 1   
    85    33    92 1   
    86    33    93 1   
    87    34    35 1   
    88    35    36 1   
    89    35    94 1   
    90    35    95 1   
    91    36    37 1   
    92    36    96 1   
    93    36    97 1   
    94    37    38 1   
    95    38    39 1   
    96    38    98 1   
    97    38    99 1   
    98    39    40 1   
    99    39   100 1   
   100    39   101 1   
   101    40   102 1   
@<TRIPOS>SUBSTRUCTURE
     1 CE9         1 TEMP              0 ****  ****    0 ROOT
