@<TRIPOS>MOLECULE
CE9
  102   101     1     0     0
SMALL
abcg2


@<TRIPOS>ATOM
      1 C1           5.3280    10.3890     0.7710 c3         1 CE9      -0.088100
      2 C2           6.2610     9.5590     1.6400 c3         1 CE9      -0.075400
      3 C3           5.6210     9.1200     2.9510 c3         1 CE9      -0.076400
      4 C4           6.5500     8.2940     3.8290 c3         1 CE9      -0.075400
      5 C5           5.8900     7.8020     5.1110 c3         1 CE9      -0.076400
      6 C6           6.7980     6.9280     5.9650 c3         1 CE9      -0.074400
      7 C7           6.1290     6.4260     7.2380 c3         1 CE9      -0.076400
      8 C8           7.0530     5.5880     8.1110 c3         1 CE9      -0.075400
      9 C9           6.3920     5.0780     9.3850 c3         1 CE9      -0.072400
     10 C10          7.3210     4.2190    10.2310 c3         1 CE9      -0.077400
     11 C11          6.7120     3.8130    11.5690 c3         1 CE9      -0.071400
     12 C12          7.6330     2.9480    12.4070 c3         1 CE9       0.164600
     13 O13          7.8580     1.7350    11.7310 os         1 CE9      -0.444000
     14 C14          8.9150     0.9740    12.2470 c3         1 CE9       0.164600
     15 C15          9.1350    -0.2250    11.3580 c3         1 CE9       0.163600
     16 O16          9.5120     0.2140    10.0790 os         1 CE9      -0.437000
     17 C17          9.5510    -0.8080     9.1200 c3         1 CE9       0.163600
     18 C18          9.7170    -0.2030     7.7480 c3         1 CE9       0.162600
     19 O19          8.5920     0.5810     7.4460 os         1 CE9      -0.428000
     20 C20          8.5950     1.0680     6.1310 c3         1 CE9       0.162600
     21 C21          7.3750     1.9270     5.9160 c3         1 CE9       0.163600
     22 O22          6.2150     1.1540     6.0760 os         1 CE9      -0.430000
     23 C23          5.0370     1.8920     5.8940 c3         1 CE9       0.162600
     24 C24          3.8380     1.0100     6.1300 c3         1 CE9       0.162600
     25 O25          3.8080    -0.0150     5.1710 os         1 CE9      -0.427000
     26 C26          2.6810    -0.8440     5.2960 c3         1 CE9       0.164600
     27 C27          2.7400    -1.9400     4.2650 c3         1 CE9       0.162600
     28 O28          2.6800    -1.3830     2.9780 os         1 CE9      -0.429000
     29 C29          2.7250    -2.3500     1.9600 c3         1 CE9       0.162600
     30 C30          2.7650    -1.6640     0.6180 c3         1 CE9       0.163600
     31 O31          3.9710    -0.9560     0.4930 os         1 CE9      -0.431000
     32 C32          4.0500    -0.1960    -0.6850 c3         1 CE9       0.163600
     33 C33          5.3220     0.6140    -0.6750 c3         1 CE9       0.162600
     34 O34          5.2830     1.5250     0.3930 os         1 CE9      -0.427000
     35 C35          6.4080     2.3620     0.4440 c3         1 CE9       0.162600
     36 C36          6.3160     3.2440     1.6630 c3         1 CE9       0.164600
     37 O37          5.1940     4.0820     1.5550 os         1 CE9      -0.457000
     38 C38          4.9710     4.8730     2.6930 c3         1 CE9       0.114600
     39 C39          3.6540     5.5970     2.5210 c3         1 CE9       0.165600
     40 OXT          2.5540     4.7230     2.4520 oh         1 CE9      -0.720000
     41 H11          5.0250    11.3050     1.2820 hc         1 CE9       0.032033
     42 H12          5.8030    10.6770    -0.1680 hc         1 CE9       0.032033
     43 H13          4.4190     9.8360     0.5260 hc         1 CE9       0.032033
     44 H21          6.5890     8.6740     1.0860 hc         1 CE9       0.036700
     45 H22          7.1690    10.1320     1.8550 hc         1 CE9       0.036700
     46 H31          4.7160     8.5410     2.7320 hc         1 CE9       0.037200
     47 H32          5.2820    10.0030     3.5050 hc         1 CE9       0.037200
     48 H41          7.4390     8.8830     4.0790 hc         1 CE9       0.036200
     49 H42          6.9170     7.4330     3.2570 hc         1 CE9       0.036200
     50 H51          5.5530     8.6630     5.6980 hc         1 CE9       0.037700
     51 H52          4.9820     7.2420     4.8590 hc         1 CE9       0.037700
     52 H61          7.7020     7.4890     6.2270 hc         1 CE9       0.035200
     53 H62          7.1400     6.0690     5.3750 hc         1 CE9       0.035200
     54 H71          5.2420     5.8390     6.9750 hc         1 CE9       0.037700
     55 H72          5.7610     7.2820     7.8160 hc         1 CE9       0.037700
     56 H81          7.9380     6.1770     8.3740 hc         1 CE9       0.036700
     57 H82          7.4270     4.7370     7.5310 hc         1 CE9       0.036700
     58 H91          6.0420     5.9330     9.9740 hc         1 CE9       0.034700
     59 H92          5.4960     4.5030     9.1260 hc         1 CE9       0.034700
     60 H101         8.2510     4.7680    10.4180 hc         1 CE9       0.051200
     61 H102         7.6080     3.3240     9.6700 hc         1 CE9       0.051200
     62 H111         5.7640     3.2890    11.4100 hc         1 CE9       0.043700
     63 H112         6.4710     4.7090    12.1490 hc         1 CE9       0.043700
     64 H121         7.1940     2.7660    13.3990 h1         1 CE9       0.017700
     65 H122         8.5830     3.4780    12.5760 h1         1 CE9       0.017700
     66 H141         9.8370     1.5710    12.3070 h1         1 CE9       0.024200
     67 H142         8.7030     0.6160    13.2650 h1         1 CE9       0.024200
     68 H151         8.2160    -0.8260    11.3120 h1         1 CE9       0.027200
     69 H152         9.9070    -0.8600    11.8140 h1         1 CE9       0.027200
     70 H171        10.3870    -1.5000     9.2960 h1         1 CE9       0.027700
     71 H172         8.6300    -1.4090     9.1470 h1         1 CE9       0.027700
     72 H181         9.8380    -1.0220     7.0260 h1         1 CE9       0.025200
     73 H182        10.6390     0.3960     7.7070 h1         1 CE9       0.025200
     74 H201         9.4820     1.6850     5.9310 h1         1 CE9       0.025200
     75 H202         8.6100     0.2430     5.4040 h1         1 CE9       0.025200
     76 H211         7.4300     2.3620     4.9080 h1         1 CE9       0.023700
     77 H212         7.3860     2.7680     6.6250 h1         1 CE9       0.023700
     78 H231         4.9820     2.7370     6.5960 h1         1 CE9       0.027200
     79 H232         4.9920     2.3180     4.8800 h1         1 CE9       0.027200
     80 H241         2.9380     1.6380     6.0710 h1         1 CE9       0.028200
     81 H242         3.8700     0.5970     7.1490 h1         1 CE9       0.028200
     82 H261         2.6400    -1.3120     6.2900 h1         1 CE9       0.025200
     83 H262         1.7540    -0.2650     5.1810 h1         1 CE9       0.025200
     84 H271         1.8990    -2.6260     4.4440 h1         1 CE9       0.025700
     85 H272         3.6600    -2.5300     4.3940 h1         1 CE9       0.025700
     86 H291         3.6030    -3.0020     2.0730 h1         1 CE9       0.025200
     87 H292         1.8400    -3.0010     1.9900 h1         1 CE9       0.025200
     88 H301         1.9010    -0.9910     0.5160 h1         1 CE9       0.026200
     89 H302         2.6660    -2.4290    -0.1650 h1         1 CE9       0.026200
     90 H321         4.0530    -0.8360    -1.5780 h1         1 CE9       0.026700
     91 H322         3.1840     0.4750    -0.7770 h1         1 CE9       0.026700
     92 H331         5.4040     1.1320    -1.6400 h1         1 CE9       0.025200
     93 H332         6.1950    -0.0500    -0.5950 h1         1 CE9       0.025200
     94 H351         7.3380     1.7810     0.5130 h1         1 CE9       0.025700
     95 H352         6.4840     2.9780    -0.4640 h1         1 CE9       0.025700
     96 H361         7.2430     3.8270     1.7440 h1         1 CE9       0.030700
     97 H362         6.2520     2.6200     2.5670 h1         1 CE9       0.030700
     98 H381         4.9410     4.2520     3.6010 h1         1 CE9       0.029200
     99 H382         5.7780     5.6080     2.8320 h1         1 CE9       0.029200
    100 H391         3.7130     6.2500     1.6400 h1         1 CE9       0.044200
    101 H392         3.5010     6.2450     3.3870 h1         1 CE9       0.044200
    102 HXT          2.6940     4.1280     1.7100 ho         1 CE9       0.520000
@<TRIPOS>BOND
     1     1     2 1   
     2     1    41 1   
     3     1    42 1   
     4     1    43 1   
     5     2     3 1   
     6     2    44 1   
     7     2    45 1   
     8     3     4 1   
     9     3    46 1   
    10     3    47 1   
    11     4     5 1   
    12     4    48 1   
    13     4    49 1   
    14     5     6 1   
    15     5    50 1   
    16     5    51 1   
    17     6     7 1   
    18     6    52 1   
    19     6    53 1   
    20     7     8 1   
    21     7    54 1   
    22     7    55 1   
    23     8     9 1   
    24     8    56 1   
    25     8    57 1   
    26     9    10 1   
    27     9    58 1   
    28     9    59 1   
    29    10    11 1   
    30    10    60 1   
    31    10    61 1   
    32    11    12 1   
    33    11    62 1   
    34    11    63 1   
    35    12    13 1   
    36    12    64 1   
    37    12    65 1   
    38    13    14 1   
    39    14    15 1   
    40    14    66 1   
    41    14    67 1   
    42    15    16 1   
    43    15    68 1   
    44    15    69 1   
    45    16    17 1   
    46    17    18 1   
    47    17    70 1   
    48    17    71 1   
    49    18    19 1   
    50    18    72 1   
    51    18    73 1   
    52    19    20 1   
    53    20    21 1   
    54    20    74 1   
    55    20    75 1   
    56    21    22 1   
    57    21    76 1   
    58    21    77 1   
    59    22    23 1   
    60    23    24 1   
    61    23    78 1   
    62    23    79 1   
    63    24    25 1   
    64    24    80 1   
    65    24    81 1   
    66    25    26 1   
    67    26    27 1   
    68    26    82 1   
    69    26    83 1   
    70    27    28 1   
    71    27    84 1   
    72    27    85 1   
    73    28    29 1   
    74    29    30 1   
    75    29    86 1   
    76    29    87 1   
    77    30    31 1   
    78    30    88 1   
    79    30    89 1   
    80    31    32 1   
    81    32    33 1   
    82    32    90 1   
    83    32    91 1   
    84    33    34 1   
    85    33    92 1   
    86    33    93 1   
    87    34    35 1   
    88    35    36 1   
    89    35    94 1   
    90    35    95 1   
    91    36    37 1   
    92    36    96 1   
    93    36    97 1   
    94    37    38 1   
    95    38    39 1   
    96    38    98 1   
    97    38    99 1   
    98    39    40 1   
    99    39   100 1   
   100    39   101 1   
   101    40   102 1   
@<TRIPOS>SUBSTRUCTURE
     1 CE9         1 TEMP              0 ****  ****    0 ROOT
