@<TRIPOS>MOLECULE
CEA
   14    13     1     0     0
SMALL
No Charge or Current Charge


@<TRIPOS>ATOM
      1 N            1.8440     0.4230     0.6710 n8         1 CEA      -0.989200
      2 CA           0.3310     0.4430     0.6750 c3         1 CEA       0.025500
      3 CB          -0.2370    -0.3570    -0.5260 c3         1 CEA       0.020600
      4 SG           0.3310     0.3360    -2.1500 ss         1 CEA      -0.161200
      5 O1          -0.4490    -0.7100    -3.2280 oh         1 CEA      -0.575800
      6 C           -0.3780    -0.0240     2.0090 c          1 CEA       0.726000
      7 OXT         -1.0270     0.7990     2.6410 o          1 CEA      -0.721000
      8 HN1          2.1730     0.5840    -0.2890 hn         1 CEA       0.386000
      9 HN2          2.1640    -0.5310     0.8820 hn         1 CEA       0.386000
     10 HA           0.0290     1.4890     0.5240 h1         1 CEA       0.054700
     11 HB1          0.0700    -1.4080    -0.4560 h1         1 CEA       0.067200
     12 HB2         -1.3340    -0.3200    -0.4980 h1         1 CEA       0.067200
     13 HO1         -1.3180    -0.3140    -3.4660 ho         1 CEA       0.436000
     14 O           -0.2080    -1.1770     2.3880 o          1 CEA      -0.721000
@<TRIPOS>BOND
     1     1     2 1   
     2     1     8 1   
     3     1     9 1   
     4     2     3 1   
     5     2     6 1   
     6     2    10 1   
     7     3     4 1   
     8     3    11 1   
     9     3    12 1   
    10     4     5 1   
    11     5    13 1   
    12     6     7 1   
    13     6    14 1   
@<TRIPOS>SUBSTRUCTURE
     1 CEA         1 TEMP              0 ****  ****    0 ROOT
