@<TRIPOS>MOLECULE
CEA
   14    13     1     0     0
SMALL
abcg2


@<TRIPOS>ATOM
      1 N            1.8150     0.2420     0.6450 n8         1 CEA      -0.989200
      2 CA           0.3820     0.4600     0.6450 c3         1 CEA       0.025500
      3 CB          -0.3660    -0.2240    -0.5140 c3         1 CEA       0.020600
      4 SG           0.1500     0.5330    -2.0780 ss         1 CEA      -0.161200
      5 O1          -0.3040    -0.6120    -3.1990 oh         1 CEA      -0.575800
      6 C           -0.2650    -0.0330     1.9690 c          1 CEA       0.726000
      7 OXT         -1.4210     0.3720     2.1890 o          1 CEA      -0.721000
      8 HN1          2.1830     0.3120    -0.2960 hn         1 CEA       0.386000
      9 HN2          1.9970    -0.7020     0.9600 hn         1 CEA       0.386000
     10 HA           0.1910     1.5380     0.5790 h1         1 CEA       0.054700
     11 HB1         -0.1160    -1.2870    -0.5470 h1         1 CEA       0.067200
     12 HB2         -1.4440    -0.1150    -0.3950 h1         1 CEA       0.067200
     13 HO1         -1.2200    -0.4450    -3.4540 ho         1 CEA       0.436000
     14 O            0.4080    -0.8060     2.6740 o          1 CEA      -0.721000
@<TRIPOS>BOND
     1     1     2 1   
     2     1     8 1   
     3     1     9 1   
     4     2     3 1   
     5     2     6 1   
     6     2    10 1   
     7     3     4 1   
     8     3    11 1   
     9     3    12 1   
    10     4     5 1   
    11     5    13 1   
    12     6     7 1   
    13     6    14 1   
@<TRIPOS>SUBSTRUCTURE
     1 CEA         1 TEMP              0 ****  ****    0 ROOT
