@<TRIPOS>MOLECULE
CEB
   32    32     1     0     0
SMALL
bcc


@<TRIPOS>ATOM
      1 N1           0.7380     0.0350     2.1760 nb         1 CEB      -0.829000
      2 C2           1.3470    -0.0330     1.0240 ca         1 CEB       0.833000
      3 CL2          3.0760    -0.0150     1.0890 cl         1 CEB      -0.131000
      4 N3           0.8300    -0.1120    -0.1740 nb         1 CEB      -0.828000
      5 C4          -0.5140    -0.1210    -0.1680 ca         1 CEB       0.974900
      6 N5          -1.2720    -0.0590     0.9170 nb         1 CEB      -0.887000
      7 C6          -0.6080     0.0170     2.0720 ca         1 CEB       0.968900
      8 N7          -1.1400    -0.1860    -1.3530 nu         1 CEB      -0.870900
      9 C8          -0.5040    -0.2730    -2.6540 c3         1 CEB       0.346300
     10 C9           0.4350     0.8560    -2.8210 c1         1 CEB       0.210700
     11 N9           1.1460     1.7380    -3.0160 n1         1 CEB      -0.356800
     12 C10         -1.6250    -0.1080    -3.7030 c3         1 CEB      -0.087400
     13 C11         -1.1610    -0.1350    -5.1490 c3         1 CEB      -0.088100
     14 C12          0.2470    -1.5930    -2.8460 c3         1 CEB      -0.100100
     15 N13         -1.3140     0.0790     3.1950 nu         1 CEB      -0.854900
     16 C14         -0.7410     0.1790     4.5240 c3         1 CEB       0.238800
     17 C15         -1.8420     0.1720     5.5670 c3         1 CEB      -0.115100
     18 HN7         -2.1470    -0.1480    -1.3300 hn         1 CEB       0.457800
     19 H101        -2.3380    -0.9180    -3.5290 hc         1 CEB       0.051700
     20 H102        -2.1490     0.8290    -3.5000 hc         1 CEB       0.051700
     21 H111        -2.0100     0.0590    -5.8030 hc         1 CEB       0.043700
     22 H112        -0.4110     0.6300    -5.3550 hc         1 CEB       0.043700
     23 H113        -0.7470    -1.1010    -5.4320 hc         1 CEB       0.043700
     24 H121        -0.4650    -2.4160    -2.7780 hc         1 CEB       0.058033
     25 H122         0.7260    -1.6310    -3.8230 hc         1 CEB       0.058033
     26 H123         1.0140    -1.7240    -2.0880 hc         1 CEB       0.058033
     27 HN3         -2.3170     0.0780     3.0970 hn         1 CEB       0.453800
     28 H141        -0.1510     1.0950     4.6060 h1         1 CEB       0.059200
     29 H142        -0.0570    -0.6540     4.6940 h1         1 CEB       0.059200
     30 H151        -1.4070     0.2450     6.5620 hc         1 CEB       0.045700
     31 H152        -2.5210     1.0150     5.4360 hc         1 CEB       0.045700
     32 H153        -2.4250    -0.7490     5.5240 hc         1 CEB       0.045700
@<TRIPOS>BOND
     1     1     2 ar  
     2     1     7 ar  
     3     2     3 1   
     4     2     4 ar  
     5     4     5 ar  
     6     5     6 ar  
     7     5     8 1   
     8     6     7 ar  
     9     7    15 1   
    10     8     9 1   
    11     8    18 1   
    12     9    10 1   
    13     9    12 1   
    14     9    14 1   
    15    10    11 3   
    16    12    13 1   
    17    12    19 1   
    18    12    20 1   
    19    13    21 1   
    20    13    22 1   
    21    13    23 1   
    22    14    24 1   
    23    14    25 1   
    24    14    26 1   
    25    15    16 1   
    26    15    27 1   
    27    16    17 1   
    28    16    28 1   
    29    16    29 1   
    30    17    30 1   
    31    17    31 1   
    32    17    32 1   
@<TRIPOS>SUBSTRUCTURE
     1 CEB         1 TEMP              0 ****  ****    0 ROOT
