@<TRIPOS>MOLECULE
CEB
   32    32     1     0     0
SMALL
No Charge or Current Charge


@<TRIPOS>ATOM
      1 N1           0.8870     0.0310     2.2740 nb         1 CEB      -0.303000
      2 C2           1.5860    -0.0270     1.1250 ca         1 CEB       0.307000
      3 Cl2          3.3370    -0.0100     1.2450 cl         1 CEB      -0.131000
      4 N3           1.0530    -0.0960    -0.1080 nb         1 CEB      -0.302000
      5 C4          -0.2900    -0.1050    -0.1350 ca         1 CEB       0.448900
      6 N5          -1.0900    -0.0530     0.9370 nb         1 CEB      -0.361000
      7 C6          -0.4450     0.0140     2.1080 ca         1 CEB       0.442900
      8 N7          -0.9560    -0.1740    -1.3480 nu         1 CEB      -0.926100
      9 C8          -0.4210    -0.2190    -2.7350 c3         1 CEB       0.346300
     10 C9           0.5340     0.8990    -3.0040 c1         1 CEB       0.299900
     11 N9           1.2720     1.7730    -3.2410 n1         1 CEB      -0.446000
     12 C10         -1.6640    -0.0870    -3.6730 c3         1 CEB      -0.087400
     13 C11         -1.3970    -0.1590    -5.2000 c3         1 CEB      -0.088100
     14 C12          0.2780    -1.5890    -2.9390 c3         1 CEB      -0.100100
     15 N13         -1.2490     0.0690     3.2280 nu         1 CEB      -0.910100
     16 C14         -0.8190     0.1470     4.6330 c3         1 CEB       0.238800
     17 C15         -2.0430     0.1890     5.5610 c3         1 CEB      -0.115100
     18 HN7         -1.9700    -0.1700    -1.2530 hn         1 CEB       0.513000
     19 H101        -2.3850    -0.8760    -3.4240 hc         1 CEB       0.051700
     20 H102        -2.1700     0.8650    -3.4640 hc         1 CEB       0.051700
     21 H111        -2.3340    -0.0160    -5.7510 hc         1 CEB       0.043700
     22 H112        -0.6980     0.6210    -5.5250 hc         1 CEB       0.043700
     23 H113        -0.9900    -1.1350    -5.4890 hc         1 CEB       0.043700
     24 H121        -0.4290    -2.4120    -2.7800 hc         1 CEB       0.058033
     25 H122         0.6850    -1.6820    -3.9530 hc         1 CEB       0.058033
     26 H123         1.1130    -1.7240    -2.2430 hc         1 CEB       0.058033
     27 HN3         -2.2510     0.0530     3.0380 hn         1 CEB       0.509000
     28 H141        -0.2120     1.0490     4.7950 h1         1 CEB       0.059200
     29 H142        -0.2010    -0.7250     4.8900 h1         1 CEB       0.059200
     30 H151        -1.7200     0.2470     6.6070 hc         1 CEB       0.045700
     31 H152        -2.6650     1.0660     5.3460 hc         1 CEB       0.045700
     32 H153        -2.6540    -0.7130     5.4420 hc         1 CEB       0.045700
@<TRIPOS>BOND
     1     1     2 ar  
     2     1     7 ar  
     3     2     3 1   
     4     2     4 ar  
     5     4     5 ar  
     6     5     6 ar  
     7     5     8 1   
     8     6     7 ar  
     9     7    15 1   
    10     8     9 1   
    11     8    18 1   
    12     9    10 1   
    13     9    12 1   
    14     9    14 1   
    15    10    11 3   
    16    12    13 1   
    17    12    19 1   
    18    12    20 1   
    19    13    21 1   
    20    13    22 1   
    21    13    23 1   
    22    14    24 1   
    23    14    25 1   
    24    14    26 1   
    25    15    16 1   
    26    15    27 1   
    27    16    17 1   
    28    16    28 1   
    29    16    29 1   
    30    17    30 1   
    31    17    31 1   
    32    17    32 1   
@<TRIPOS>SUBSTRUCTURE
     1 CEB         1 TEMP              0 ****  ****    0 ROOT
