@<TRIPOS>MOLECULE
CEC
   12    11     1     0     0
SMALL
No Charge or Current Charge


@<TRIPOS>ATOM
      1 C1           2.3830    -0.5200    -0.4780 c          1 CEC       0.600900
      2 O1           2.1560    -0.0430    -1.5830 o          1 CEC      -0.591100
      3 N1           1.4740    -0.4650     0.5580 ns         1 CEC      -0.521900
      4 C2           0.1390     0.1480     0.4730 c3         1 CEC       0.086000
      5 C3          -0.8460    -0.6700    -0.3870 c3         1 CEC       0.101600
      6 Cl1         -2.4930     0.1010    -0.4170 cl         1 CEC      -0.279000
      7 H11          3.3220    -1.0320    -0.2000 h5         1 CEC       0.009200
      8 HN1          1.7630    -0.8850     1.4350 hn         1 CEC       0.311500
      9 H21          0.2360     1.1580     0.0520 h1         1 CEC       0.072700
     10 H22         -0.2670     0.2450     1.4890 h1         1 CEC       0.072700
     11 H31         -0.9590    -1.6820     0.0210 h1         1 CEC       0.069200
     12 H32         -0.4910    -0.7370    -1.4230 h1         1 CEC       0.069200
@<TRIPOS>BOND
     1     1     2 2   
     2     1     3 1   
     3     1     7 1   
     4     3     4 1   
     5     3     8 1   
     6     4     5 1   
     7     4     9 1   
     8     4    10 1   
     9     5     6 1   
    10     5    11 1   
    11     5    12 1   
@<TRIPOS>SUBSTRUCTURE
     1 CEC         1 TEMP              0 ****  ****    0 ROOT
