@<TRIPOS>MOLECULE
CEC
   12    11     1     0     0
SMALL
abcg2


@<TRIPOS>ATOM
      1 C1           2.4480    -0.3740    -0.4100 c          1 CEC       0.600900
      2 O1           2.4770     0.3910    -1.3570 o          1 CEC      -0.591100
      3 N1           1.4260    -0.5310     0.4440 ns         1 CEC      -0.521900
      4 C2           0.1630     0.1530     0.3570 c3         1 CEC       0.086000
      5 C3          -0.8910    -0.7430    -0.2820 c3         1 CEC       0.101600
      6 CL1         -2.4760     0.1150    -0.2850 cl         1 CEC      -0.279000
      7 H11          3.2940    -1.0260    -0.1500 h5         1 CEC       0.009200
      8 HN1          1.5320    -1.2280     1.1630 hn         1 CEC       0.311500
      9 H21          0.2850     1.0510    -0.2450 h1         1 CEC       0.072700
     10 H22         -0.1640     0.4550     1.3520 h1         1 CEC       0.072700
     11 H31         -1.0340    -1.6730     0.2670 h1         1 CEC       0.069200
     12 H32         -0.6450    -0.9720    -1.3160 h1         1 CEC       0.069200
@<TRIPOS>BOND
     1     1     2 2   
     2     1     3 1   
     3     1     7 1   
     4     3     4 1   
     5     3     8 1   
     6     4     5 1   
     7     4     9 1   
     8     4    10 1   
     9     5     6 1   
    10     5    11 1   
    11     5    12 1   
@<TRIPOS>SUBSTRUCTURE
     1 CEC         1 TEMP              0 ****  ****    0 ROOT
