@<TRIPOS>MOLECULE
CED
   37    38     1     0     0
SMALL
bcc


@<TRIPOS>ATOM
      1 S1          -1.9890    -1.7500     0.6300 ss         1 CED      -0.425200
      2 C2          -3.4670    -2.0540    -0.3670 c6         1 CED       0.095900
      3 C3          -4.3690    -0.8590    -0.5370 c2         1 CED      -0.241400
      4 C5          -5.7310    -1.2740    -1.0210 c3         1 CED      -0.004900
      5 C4          -3.9680     0.4040    -0.3050 ce         1 CED       0.042800
      6 C9          -4.8520     1.6510    -0.4300 c          1 CED       0.926800
      7 O4A         -6.0800     1.5260    -0.3060 o          1 CED      -0.811800
      8 O4B         -4.2260     2.7140    -0.6330 o          1 CED      -0.811800
      9 N5          -2.6790     0.7540     0.0960 nu         1 CED      -0.740000
     10 C6          -1.5960    -0.1400    -0.1340 c6         1 CED       0.322600
     11 C7          -0.3190     0.4050     0.5100 c3         1 CED      -0.013300
     12 C8          -0.4730     0.4860     2.0190 c          1 CED       0.578900
     13 O9           0.3330     0.0450     2.7940 o          1 CED      -0.530100
     14 N10          0.8200    -0.3690     0.1170 ns         1 CED      -0.558900
     15 C11          2.0740     0.1230     0.1560 c          1 CED       0.671100
     16 O12          2.3220     1.2850     0.4230 o          1 CED      -0.591100
     17 C13          3.1450    -0.8990    -0.1920 c3         1 CED      -0.092100
     18 C14          4.5270    -0.3510    -0.1510 cc         1 CED      -0.039400
     19 C15          5.5170    -0.6510     0.7370 cd         1 CED      -0.152000
     20 C16          6.7270     0.0530     0.4850 cd         1 CED      -0.152000
     21 C17          6.6340     0.8780    -0.5930 cc         1 CED      -0.128100
     22 S19          5.0760     0.8020    -1.3050 ss         1 CED      -0.060800
     23 H21         -3.1730    -2.4660    -1.3370 h1         1 CED       0.049700
     24 H22         -4.0090    -2.8490     0.1530 h1         1 CED       0.049700
     25 H3'1        -5.6260    -2.0740    -1.7600 hc         1 CED       0.026700
     26 H3'2        -6.3370    -1.6840    -0.2080 hc         1 CED       0.026700
     27 H3'3        -6.2900    -0.4640    -1.4750 hc         1 CED       0.026700
     28 HN5         -2.4960     1.7190    -0.1560 hn         1 CED       0.443800
     29 H6          -1.4060    -0.3210    -1.2010 h2         1 CED       0.046700
     30 H7          -0.1950     1.4360     0.1550 h1         1 CED       0.100700
     31 H8          -1.3810     1.0110     2.3580 h4         1 CED       0.032200
     32 HN1          0.6920    -1.3600    -0.0280 hn         1 CED       0.324500
     33 H131         3.0760    -1.7320     0.5130 hc         1 CED       0.068200
     34 H132         2.9140    -1.3200    -1.1760 hc         1 CED       0.068200
     35 H15          5.3860    -1.3560     1.5460 ha         1 CED       0.148000
     36 H16          7.6230    -0.0520     1.0800 ha         1 CED       0.143000
     37 H17          7.3920     1.5260    -1.0040 h4         1 CED       0.160000
@<TRIPOS>BOND
     1     1     2 1   
     2     1    10 1   
     3     2     3 1   
     4     2    23 1   
     5     2    24 1   
     6     3     4 1   
     7     3     5 2   
     8     4    25 1   
     9     4    26 1   
    10     4    27 1   
    11     5     6 1   
    12     5     9 1   
    13     6     7 1   
    14     6     8 1   
    15     9    10 1   
    16     9    28 1   
    17    10    11 1   
    18    10    29 1   
    19    11    12 1   
    20    11    14 1   
    21    11    30 1   
    22    12    13 2   
    23    12    31 1   
    24    14    15 1   
    25    14    32 1   
    26    15    16 2   
    27    15    17 1   
    28    17    18 1   
    29    17    33 1   
    30    17    34 1   
    31    18    19 2   
    32    18    22 1   
    33    19    20 1   
    34    19    35 1   
    35    20    21 2   
    36    20    36 1   
    37    21    22 1   
    38    21    37 1   
@<TRIPOS>SUBSTRUCTURE
     1 CED         1 TEMP              0 ****  ****    0 ROOT
