@<TRIPOS>MOLECULE
CED
   37    38     1     0     0
SMALL
No Charge or Current Charge


@<TRIPOS>ATOM
      1 S1          -1.8610    -1.8320     0.4970 ss         1 CED      -0.521000
      2 C2          -3.2420    -1.9280    -0.7030 c6         1 CED       0.143800
      3 C3          -4.2160    -0.7550    -0.6840 c2         1 CED      -0.241400
      4 C5          -5.5820    -1.1260    -1.2480 c3         1 CED      -0.004900
      5 C4          -3.8500     0.4780    -0.2120 ce         1 CED       0.042800
      6 C9          -4.7770     1.7300    -0.1740 c          1 CED       0.716200
      7 O4A         -5.9460     1.6620    -0.5320 o          1 CED      -0.706500
      8 O4B         -4.2920     2.7830     0.2310 o          1 CED      -0.706500
      9 N5          -2.5250     0.7480     0.2640 nu         1 CED      -0.795200
     10 C6          -1.3640    -0.1210     0.0790 c6         1 CED       0.370500
     11 C7          -0.1600     0.3270     0.9600 c3         1 CED      -0.013300
     12 C8          -0.4920     0.2390     2.4670 c          1 CED       0.578900
     13 O9           0.2290    -0.3150     3.2960 o          1 CED      -0.530100
     14 N10          1.1000    -0.4110     0.6560 ns         1 CED      -0.491900
     15 C11          1.7830    -0.3530    -0.5390 c          1 CED       0.604100
     16 O12          1.4220     0.3690    -1.4570 o          1 CED      -0.591100
     17 C13          3.0360    -1.2350    -0.6190 c3         1 CED      -0.092100
     18 C14          4.3230    -0.4750    -0.4020 cc         1 CED      -0.184300
     19 C15          5.1290    -0.4860     0.7090 cd         1 CED      -0.134000
     20 C16          6.2690     0.3530     0.5930 cd         1 CED      -0.134000
     21 C17          6.3430     1.0130    -0.6070 cc         1 CED      -0.255000
     22 S19          4.9750     0.6020    -1.6390 ss         1 CED       0.229000
     23 H21         -2.8000    -2.0110    -1.7060 h1         1 CED       0.049700
     24 H22         -3.7730    -2.8690    -0.5010 h1         1 CED       0.049700
     25 H3'1        -5.6130    -2.1560    -1.6250 hc         1 CED       0.026700
     26 H3'2        -6.3620    -1.0410    -0.4820 hc         1 CED       0.026700
     27 H3'3        -5.8540    -0.4780    -2.0900 hc         1 CED       0.026700
     28 HN5         -2.3600     1.7390     0.4650 hn         1 CED       0.499000
     29 H6          -1.0610    -0.1230    -0.9790 h2         1 CED       0.046700
     30 H7           0.0180     1.3880     0.7490 h1         1 CED       0.100700
     31 H8          -1.4420     0.7270     2.7780 h4         1 CED       0.032200
     32 HN1          1.4830    -1.0220     1.3710 hn         1 CED       0.324500
     33 H131         2.9710    -2.0230     0.1400 hc         1 CED       0.068200
     34 H132         3.0660    -1.6960    -1.6130 hc         1 CED       0.068200
     35 H15          4.9170    -1.0790     1.5940 ha         1 CED       0.130000
     36 H16          7.0110     0.4620     1.3790 ha         1 CED       0.125000
     37 H17          7.0920     1.7070    -0.9640 h4         1 CED       0.142000
@<TRIPOS>BOND
     1     1     2 1   
     2     1    10 1   
     3     2     3 1   
     4     2    23 1   
     5     2    24 1   
     6     3     4 1   
     7     3     5 2   
     8     4    25 1   
     9     4    26 1   
    10     4    27 1   
    11     5     6 1   
    12     5     9 1   
    13     6     7 1   
    14     6     8 1   
    15     9    10 1   
    16     9    28 1   
    17    10    11 1   
    18    10    29 1   
    19    11    12 1   
    20    11    14 1   
    21    11    30 1   
    22    12    13 2   
    23    12    31 1   
    24    14    15 1   
    25    14    32 1   
    26    15    16 2   
    27    15    17 1   
    28    17    18 1   
    29    17    33 1   
    30    17    34 1   
    31    18    19 2   
    32    18    22 1   
    33    19    20 1   
    34    19    35 1   
    35    20    21 2   
    36    20    36 1   
    37    21    22 1   
    38    21    37 1   
@<TRIPOS>SUBSTRUCTURE
     1 CED         1 TEMP              0 ****  ****    0 ROOT
