@<TRIPOS>MOLECULE
CEE
   18    18     1     0     0
SMALL
bcc


@<TRIPOS>ATOM
      1 C1           0.6420    -0.0240     0.3800 ca         1 CEE      -0.090300
      2 C2           1.3340    -1.2190     0.1910 ca         1 CEE      -0.122500
      3 C3           2.6780    -1.2140    -0.1570 ca         1 CEE      -0.126500
      4 C4           3.3500    -0.0090    -0.3240 ca         1 CEE      -0.125000
      5 C5           2.6690     1.1880    -0.1420 ca         1 CEE      -0.126500
      6 C6           1.3250     1.1780     0.2070 ca         1 CEE      -0.122500
      7 C7          -0.8230    -0.0310     0.7220 c3         1 CEE      -0.040100
      8 C8          -1.6520     0.0130    -0.5490 c3         1 CEE       0.059000
      9 CL1         -3.4140     0.0090    -0.1580 cl         1 CEE      -0.219400
     10 H2           0.8180    -2.1620     0.3270 ha         1 CEE       0.130000
     11 H3           3.2020    -2.1510    -0.2950 ha         1 CEE       0.132000
     12 H4           4.3990    -0.0040    -0.5900 ha         1 CEE       0.132000
     13 H5           3.1850     2.1310    -0.2690 ha         1 CEE       0.132000
     14 H6           0.8030     2.1160     0.3550 ha         1 CEE       0.130000
     15 H1          -1.0770    -0.9290     1.2880 hc         1 CEE       0.062700
     16 H1'A        -1.0710     0.8290     1.3470 hc         1 CEE       0.062700
     17 H7          -1.4610     0.9160    -1.1250 h1         1 CEE       0.066700
     18 H2'A        -1.4690    -0.8530    -1.1810 h1         1 CEE       0.066700
@<TRIPOS>BOND
     1     1     2 ar  
     2     1     6 ar  
     3     1     7 1   
     4     2     3 ar  
     5     2    10 1   
     6     3     4 ar  
     7     3    11 1   
     8     4     5 ar  
     9     4    12 1   
    10     5     6 ar  
    11     5    13 1   
    12     6    14 1   
    13     7     8 1   
    14     7    15 1   
    15     7    16 1   
    16     8     9 1   
    17     8    17 1   
    18     8    18 1   
@<TRIPOS>SUBSTRUCTURE
     1 CEE         1 TEMP              0 ****  ****    0 ROOT
