@<TRIPOS>MOLECULE
CEE
   18    18     1     0     0
SMALL
No Charge or Current Charge


@<TRIPOS>ATOM
      1 C1           0.6500    -0.0170     0.3550 ca         1 CEE      -0.090300
      2 C2           1.3390    -1.2320     0.1710 ca         1 CEE      -0.104500
      3 C3           2.7060    -1.2280    -0.1580 ca         1 CEE      -0.108500
      4 C4           3.3910    -0.0100    -0.3050 ca         1 CEE      -0.107000
      5 C5           2.7080     1.2040    -0.1240 ca         1 CEE      -0.108500
      6 C6           1.3410     1.2010     0.2050 ca         1 CEE      -0.104500
      7 C7          -0.8330    -0.0200     0.7050 c3         1 CEE      -0.040100
      8 C8          -1.7220    -0.0010    -0.5520 c3         1 CEE       0.135600
      9 Cl1         -3.4870    -0.0060    -0.1110 cl         1 CEE      -0.296000
     10 H2           0.8160    -2.1790     0.2800 ha         1 CEE       0.112000
     11 H3           3.2330    -2.1690    -0.2990 ha         1 CEE       0.114000
     12 H4           4.4490    -0.0080    -0.5590 ha         1 CEE       0.114000
     13 H5           3.2380     2.1480    -0.2380 ha         1 CEE       0.114000
     14 H6           0.8200     2.1460     0.3420 ha         1 CEE       0.112000
     15 H1          -1.0800    -0.9060     1.3030 hc         1 CEE       0.062700
     16 H1'A        -1.0780     0.8480     1.3280 hc         1 CEE       0.062700
     17 H7          -1.5260     0.9010    -1.1450 h1         1 CEE       0.066700
     18 H2'A        -1.5290    -0.8860    -1.1710 h1         1 CEE       0.066700
@<TRIPOS>BOND
     1     1     2 ar  
     2     1     6 ar  
     3     1     7 1   
     4     2     3 ar  
     5     2    10 1   
     6     3     4 ar  
     7     3    11 1   
     8     4     5 ar  
     9     4    12 1   
    10     5     6 ar  
    11     5    13 1   
    12     6    14 1   
    13     7     8 1   
    14     7    15 1   
    15     7    16 1   
    16     8     9 1   
    17     8    17 1   
    18     8    18 1   
@<TRIPOS>SUBSTRUCTURE
     1 CEE         1 TEMP              0 ****  ****    0 ROOT
