@<TRIPOS>MOLECULE
CEF
   40    41     1     0     0
SMALL
abcg2


@<TRIPOS>ATOM
      1 S1          -3.5420     1.9430    -0.0700 ss         1 CEF      -0.537000
      2 C1          -4.4770     0.9510     1.1280 c6         1 CEF       0.120800
      3 C2          -4.2300    -0.4990     0.8630 ce         1 CEF      -0.214800
      4 C3          -5.2300    -1.3710     0.7370 c2         1 CEF      -0.256000
      5 C4          -2.8200    -0.9210     0.7210 ce         1 CEF       0.445600
      6 C5          -2.4670    -2.4030     0.8600 c          1 CEF       0.653700
      7 O1          -2.5840    -2.8860     1.9910 o          1 CEF      -0.700000
      8 O2          -2.0660    -2.9590    -0.1840 o          1 CEF      -0.700000
      9 N1          -1.8300    -0.1440     0.5470 n2         1 CEF      -0.613900
     10 C6          -1.9160     1.2750     0.4260 c6         1 CEF       0.291500
     11 C7          -0.8740     1.7480    -0.6080 c3         1 CEF       0.006700
     12 C8          -0.7960     3.2670    -0.5640 c          1 CEF       0.584900
     13 O3          -0.1820     3.8730     0.2750 o          1 CEF      -0.512100
     14 N2           0.3940     1.1490    -0.2790 ns         1 CEF      -0.447900
     15 C9           1.4890     1.4560    -0.9870 c          1 CEF       0.511800
     16 O4           1.5180     2.3110    -1.8550 o          1 CEF      -0.612100
     17 C10          2.7030     0.6130    -0.6600 ce         1 CEF       0.307300
     18 N3           3.8000     1.1080    -0.2420 n2         1 CEF      -0.321700
     19 O5           3.7850     2.4550    -0.1340 os         1 CEF      -0.282000
     20 C11          5.0180     2.9130     0.3980 c3         1 CEF       0.157900
     21 C12          2.6480    -0.8400    -0.8520 cc         1 CEF       0.303700
     22 C13          3.7270    -1.6250    -1.1010 cd         1 CEF      -0.261000
     23 S2           3.2050    -3.2630    -1.2820 ss         1 CEF      -0.205400
     24 C14          1.5710    -2.7620    -0.8880 cd         1 CEF       0.785300
     25 N4           0.5680    -3.6420    -0.8330 nv         1 CEF      -1.068900
     26 N5           1.4440    -1.4760    -0.7230 nc         1 CEF      -0.754000
     27 H1          -4.1660     1.2310     2.1370 h1         1 CEF       0.065700
     28 H2          -5.5300     1.2050     1.0160 h1         1 CEF       0.065700
     29 H3          -6.2620    -1.0530     0.8140 ha         1 CEF       0.166500
     30 H4          -5.0630    -2.4230     0.5500 ha         1 CEF       0.166500
     31 H6          -1.6480     1.7070     1.3970 h2         1 CEF       0.085700
     32 H7          -1.2110     1.4510    -1.6090 h1         1 CEF       0.074700
     33 H8          -1.3910     3.7800    -1.3370 h4         1 CEF      -0.007800
     34 H9           0.3380     0.2270     0.1490 hn         1 CEF       0.380500
     35 H10          5.1890     2.5330     1.4060 h1         1 CEF       0.033367
     36 H11          5.8560     2.6320    -0.2430 h1         1 CEF       0.033367
     37 H12          4.9440     3.9980     0.4340 h1         1 CEF       0.033367
     38 H13          4.7570    -1.3400    -1.2360 h4         1 CEF       0.158000
     39 H14          0.7580    -4.6290    -0.8560 hn         1 CEF       0.532000
     40 H15         -0.3680    -3.3440    -0.5300 hn         1 CEF       0.532000
@<TRIPOS>BOND
     1     1     2 1   
     2     1    10 1   
     3     2     3 1   
     4     2    27 1   
     5     2    28 1   
     6     3     4 2   
     7     3     5 1   
     8     4    29 1   
     9     4    30 1   
    10     5     6 1   
    11     5     9 2   
    12     6     7 1   
    13     6     8 1   
    14     9    10 1   
    15    10    11 1   
    16    10    31 1   
    17    11    12 1   
    18    11    14 1   
    19    11    32 1   
    20    12    13 2   
    21    12    33 1   
    22    14    15 1   
    23    14    34 1   
    24    15    16 2   
    25    15    17 1   
    26    17    18 2   
    27    17    21 1   
    28    18    19 1   
    29    19    20 1   
    30    20    35 1   
    31    20    36 1   
    32    20    37 1   
    33    21    22 2   
    34    21    26 1   
    35    22    23 1   
    36    22    38 1   
    37    23    24 1   
    38    24    25 1   
    39    24    26 2   
    40    25    39 1   
    41    25    40 1   
@<TRIPOS>SUBSTRUCTURE
     1 CEF         1 TEMP              0 ****  ****    0 ROOT
