@<TRIPOS>MOLECULE
CEF
   40    41     1     0     0
SMALL
No Charge or Current Charge


@<TRIPOS>ATOM
      1 S1          -3.6330     2.0440     0.5110 ss         1 CEF      -0.537000
      2 C1          -4.6690     0.7680     1.3250 c6         1 CEF       0.120800
      3 C2          -4.5810    -0.5380     0.5370 ce         1 CEF      -0.214800
      4 C3          -5.7130    -1.1500     0.1070 c2         1 CEF      -0.256000
      5 C4          -3.2050    -1.0710     0.3030 ce         1 CEF       0.445600
      6 C5          -2.8720    -2.5780     0.4800 c          1 CEF       0.653700
      7 O1          -3.7320    -3.3470     0.9060 o          1 CEF      -0.700000
      8 O2          -1.7370    -2.9800     0.2280 o          1 CEF      -0.700000
      9 N1          -2.2840    -0.2520    -0.1500 n2         1 CEF      -0.613900
     10 C6          -2.0880     1.0580     0.4680 c6         1 CEF       0.291500
     11 C7          -0.9930     1.8430    -0.3070 c3         1 CEF       0.006700
     12 C8          -0.7420     3.2110     0.3630 c          1 CEF       0.584900
     13 O3           0.1180     3.4130     1.2190 o          1 CEF      -0.512100
     14 N2           0.2900     1.1060    -0.4930 ns         1 CEF      -0.447900
     15 C9           1.3260     1.5410    -1.3040 c          1 CEF       0.511800
     16 O4           1.1870     2.5840    -1.9430 o          1 CEF      -0.612100
     17 C10          2.6460     0.7790    -1.2430 ce         1 CEF       0.307300
     18 N3           3.7420     1.4670    -1.4220 n2         1 CEF      -0.321700
     19 O5           4.3670     1.8570    -0.2190 os         1 CEF      -0.282000
     20 C11          5.5640     2.6040    -0.4990 c3         1 CEF       0.157900
     21 C12          2.7340    -0.6200    -0.7460 cc         1 CEF       0.303700
     22 C13          3.9150    -1.2790    -0.4550 cd         1 CEF      -0.261000
     23 S2           3.6370    -2.9350     0.0480 ss         1 CEF      -0.205400
     24 C14          1.9440    -2.6030    -0.2100 cd         1 CEF       0.785300
     25 N4           0.9870    -3.5110    -0.0960 nv         1 CEF      -1.068900
     26 N5           1.6000    -1.4050    -0.5960 nc         1 CEF      -0.754000
     27 H1          -4.3060     0.6190     2.3520 h1         1 CEF       0.065700
     28 H2          -5.7050     1.1360     1.3740 h1         1 CEF       0.065700
     29 H3          -6.7030    -0.7360     0.3000 ha         1 CEF       0.166500
     30 H4          -5.6860    -2.0830    -0.4580 ha         1 CEF       0.166500
     31 H6          -1.7590     0.9210     1.5110 h2         1 CEF       0.085700
     32 H7          -1.3970     2.0590    -1.3040 h1         1 CEF       0.074700
     33 H8          -1.3960     4.0390     0.0100 h4         1 CEF      -0.007800
     34 H9           0.4020     0.1810    -0.0770 hn         1 CEF       0.380500
     35 H10          6.2770     1.9990    -1.0730 h1         1 CEF       0.033367
     36 H11          5.3330     3.5110    -1.0730 h1         1 CEF       0.033367
     37 H12          6.0500     2.9070     0.4370 h1         1 CEF       0.033367
     38 H13          4.9220    -0.8840    -0.5150 h4         1 CEF       0.158000
     39 H14          1.1830    -4.2870     0.5200 hn         1 CEF       0.532000
     40 H15          0.0340    -3.1430    -0.0400 hn         1 CEF       0.532000
@<TRIPOS>BOND
     1     1     2 1   
     2     1    10 1   
     3     2     3 1   
     4     2    27 1   
     5     2    28 1   
     6     3     4 2   
     7     3     5 1   
     8     4    29 1   
     9     4    30 1   
    10     5     6 1   
    11     5     9 2   
    12     6     7 1   
    13     6     8 1   
    14     9    10 1   
    15    10    11 1   
    16    10    31 1   
    17    11    12 1   
    18    11    14 1   
    19    11    32 1   
    20    12    13 2   
    21    12    33 1   
    22    14    15 1   
    23    14    34 1   
    24    15    16 2   
    25    15    17 1   
    26    17    18 2   
    27    17    21 1   
    28    18    19 1   
    29    19    20 1   
    30    20    35 1   
    31    20    36 1   
    32    20    37 1   
    33    21    22 2   
    34    21    26 1   
    35    22    23 1   
    36    22    38 1   
    37    23    24 1   
    38    24    25 1   
    39    24    26 2   
    40    25    39 1   
    41    25    40 1   
@<TRIPOS>SUBSTRUCTURE
     1 CEF         1 TEMP              0 ****  ****    0 ROOT
