@<TRIPOS>MOLECULE
CEG
   30    31     1     0     0
SMALL
No Charge or Current Charge


@<TRIPOS>ATOM
      1 C1          -3.1560    -4.5510    25.0410 c6         1 CEG       0.402300
      2 C2          -4.7110    -4.3150    25.1770 c6         1 CEG       0.145300
      3 C3          -5.0880    -4.3210    26.6890 c6         1 CEG       0.145300
      4 C4          -4.5900    -5.6400    27.3360 c6         1 CEG       0.116300
      5 C5          -3.0600    -5.7550    27.1270 c6         1 CEG       0.096300
      6 C6          -2.5760    -7.0400    27.8390 c6         1 CEG       0.179600
      7 C7          -4.4690    -6.9440    29.3940 c6         1 CEG       0.231000
      8 C8          -5.2830    -8.2660    28.9600 c          1 CEG       0.696000
      9 C9          -4.7030    -6.7330    30.9120 c3         1 CEG      -0.059100
     10 O1          -2.7580    -4.7620    23.7010 oh         1 CEG      -0.691000
     11 O2          -5.1710    -3.0820    24.5740 oh         1 CEG      -0.725000
     12 O3          -6.5060    -4.1520    26.8770 oh         1 CEG      -0.728000
     13 O4          -4.9100    -5.7090    28.7480 os         1 CEG      -0.470000
     14 O5          -2.7660    -5.7600    25.7090 os         1 CEG      -0.482000
     15 O6          -3.0200    -7.0280    29.2200 os         1 CEG      -0.465000
     16 O8A         -4.6440    -9.3020    28.8060 o          1 CEG      -0.702000
     17 O8B         -6.3530    -8.1130    28.3790 o          1 CEG      -0.702000
     18 H1          -2.6030    -3.7000    25.4690 h2         1 CEG       0.015700
     19 H2          -5.2150    -5.1700    24.7010 h1         1 CEG       0.071700
     20 H3          -4.5570    -3.4900    27.1770 h1         1 CEG       0.030700
     21 H4          -5.0750    -6.4820    26.8200 h1         1 CEG       0.093700
     22 H5          -2.5580    -4.8900    27.5860 h1         1 CEG       0.033700
     23 H61         -2.9690    -7.9300    27.3270 h1         1 CEG       0.056200
     24 H62         -1.4780    -7.0890    27.8160 h1         1 CEG       0.056200
     25 H9A         -4.1760    -5.8440    31.2780 hc         1 CEG       0.035700
     26 H9B         -5.7690    -6.6060    31.1320 hc         1 CEG       0.035700
     27 H9C         -4.3470    -7.5960    31.4880 hc         1 CEG       0.035700
     28 HO1         -2.2130    -5.5750    23.7710 ho         1 CEG       0.506000
     29 HO2         -6.0290    -2.8970    25.0290 ho         1 CEG       0.516000
     30 HO3         -6.6870    -4.4900    27.7880 ho         1 CEG       0.525000
@<TRIPOS>BOND
     1     1     2 1   
     2     1    10 1   
     3     1    14 1   
     4     1    18 1   
     5     2     3 1   
     6     2    11 1   
     7     2    19 1   
     8     3     4 1   
     9     3    12 1   
    10     3    20 1   
    11     4     5 1   
    12     4    13 1   
    13     4    21 1   
    14     5     6 1   
    15     5    14 1   
    16     5    22 1   
    17     6    15 1   
    18     6    23 1   
    19     6    24 1   
    20     7     8 1   
    21     7     9 1   
    22     7    13 1   
    23     7    15 1   
    24     8    16 1   
    25     8    17 1   
    26     9    25 1   
    27     9    26 1   
    28     9    27 1   
    29    10    28 1   
    30    11    29 1   
    31    12    30 1   
@<TRIPOS>SUBSTRUCTURE
     1 CEG         1 TEMP              0 ****  ****    0 ROOT
