@<TRIPOS>MOLECULE
CEG
   30    31     1     0     0
SMALL
abcg2


@<TRIPOS>ATOM
      1 C1          -3.1990    -4.6680    25.1100 c6         1 CEG       0.402300
      2 C2          -4.6990    -4.4080    25.2590 c6         1 CEG       0.145300
      3 C3          -5.1040    -4.4240    26.7330 c6         1 CEG       0.145300
      4 C4          -4.6150    -5.7180    27.3540 c6         1 CEG       0.116300
      5 C5          -3.1150    -5.8380    27.1270 c6         1 CEG       0.096300
      6 C6          -2.6450    -7.1090    27.8090 c6         1 CEG       0.179600
      7 C7          -4.4310    -6.9150    29.3610 c6         1 CEG       0.231000
      8 C8          -5.2460    -8.1780    28.9080 c          1 CEG       0.696000
      9 C9          -4.6360    -6.7160    30.8520 c3         1 CEG      -0.059100
     10 O1          -2.9020    -4.7820    23.7720 oh         1 CEG      -0.691000
     11 O2          -4.9780    -3.1700    24.6600 oh         1 CEG      -0.725000
     12 O3          -6.5040    -4.2780    26.7790 oh         1 CEG      -0.728000
     13 O4          -4.8850    -5.7340    28.7330 os         1 CEG      -0.470000
     14 O5          -2.8420    -5.8770    25.7490 os         1 CEG      -0.482000
     15 O6          -3.0460    -7.0650    29.1600 os         1 CEG      -0.465000
     16 O8A         -4.6490    -9.2650    28.9880 o          1 CEG      -0.702000
     17 O8B         -6.4310    -7.9770    28.5910 o          1 CEG      -0.702000
     18 H1          -2.6440    -3.8390    25.5840 h2         1 CEG       0.015700
     19 H2          -5.2320    -5.2290    24.7520 h1         1 CEG       0.071700
     20 H3          -4.6060    -3.5820    27.2400 h1         1 CEG       0.030700
     21 H4          -5.1120    -6.5600    26.8480 h1         1 CEG       0.093700
     22 H5          -2.6110    -4.9770    27.5960 h1         1 CEG       0.033700
     23 H61         -3.0530    -7.9850    27.2870 h1         1 CEG       0.056200
     24 H62         -1.5570    -7.1900    27.7990 h1         1 CEG       0.056200
     25 H9A         -4.0860    -5.8440    31.2090 hc         1 CEG       0.035700
     26 H9B         -5.6930    -6.5730    31.0740 hc         1 CEG       0.035700
     27 H9C         -4.2920    -7.5910    31.4030 hc         1 CEG       0.035700
     28 HO1         -1.9540    -4.6740    23.6440 ho         1 CEG       0.506000
     29 HO2         -5.9090    -2.9730    24.8060 ho         1 CEG       0.516000
     30 HO3         -6.7650    -4.0950    27.6860 ho         1 CEG       0.525000
@<TRIPOS>BOND
     1     1     2 1   
     2     1    10 1   
     3     1    14 1   
     4     1    18 1   
     5     2     3 1   
     6     2    11 1   
     7     2    19 1   
     8     3     4 1   
     9     3    12 1   
    10     3    20 1   
    11     4     5 1   
    12     4    13 1   
    13     4    21 1   
    14     5     6 1   
    15     5    14 1   
    16     5    22 1   
    17     6    15 1   
    18     6    23 1   
    19     6    24 1   
    20     7     8 1   
    21     7     9 1   
    22     7    13 1   
    23     7    15 1   
    24     8    16 1   
    25     8    17 1   
    26     9    25 1   
    27     9    26 1   
    28     9    27 1   
    29    10    28 1   
    30    11    29 1   
    31    12    30 1   
@<TRIPOS>SUBSTRUCTURE
     1 CEG         1 TEMP              0 ****  ****    0 ROOT
