@<TRIPOS>MOLECULE
CEH
   90    91     1     0     0
SMALL
bcc


@<TRIPOS>ATOM
      1 S1          17.0650   -12.3270    41.3950 ss         1 CEH      -0.470200
      2 C1          17.2150   -11.6450    43.0750 c6         1 CEH       0.110900
      3 C2          18.2260   -10.5390    43.1460 c2         1 CEH      -0.312400
      4 C3          18.3210    -9.6550    42.1280 ce         1 CEH       0.089800
      5 N1          17.5030    -9.6750    41.0190 nu         1 CEH      -0.755000
      6 C4          16.6200   -10.7320    40.6200 c6         1 CEH       0.368600
      7 C5          19.1930   -10.6130    44.2980 c3         1 CEH       0.031800
      8 C6          19.3480    -8.5150    42.0200 c          1 CEH       0.927800
      9 O1          19.4260    -7.9780    40.9000 o          1 CEH      -0.819300
     10 O2          20.0100    -8.2000    43.0310 o          1 CEH      -0.819300
     11 N2          17.9280   -11.2740    38.6090 ns         1 CEH      -0.521900
     12 C7          16.6280   -10.8820    39.0890 c3         1 CEH      -0.052300
     13 C8          16.1830    -9.5300    38.4600 c          1 CEH       0.930600
     14 C9          18.2880   -12.5300    38.3120 c          1 CEH       0.669100
     15 C10         19.7430   -12.7060    37.9040 c3         1 CEH      -0.112100
     16 C11         20.4250   -13.6450    38.8640 ca         1 CEH      -0.052300
     17 C12         20.7550   -13.2180    40.1500 ca         1 CEH      -0.097500
     18 C13         21.3410   -14.0900    41.0560 ca         1 CEH      -0.133500
     19 C14         21.6130   -15.4020    40.6880 ca         1 CEH      -0.142000
     20 C15         21.2960   -15.8330    39.4080 ca         1 CEH      -0.133500
     21 C16         20.7040   -14.9590    38.5050 ca         1 CEH      -0.097500
     22 O11         17.5330   -13.4910    38.3790 o          1 CEH      -0.665100
     23 C17         20.5430   -11.2030    43.8590 c3         1 CEH      -0.087400
     24 C18         21.7040   -10.8790    44.8030 c3         1 CEH       0.042700
     25 C19         22.9440   -11.6010    44.2840 c          1 CEH       0.667100
     26 N4          21.8600    -9.4480    44.8790 ns         1 CEH      -0.585900
     27 O4          23.0750   -12.8070    44.4500 o          1 CEH      -0.672100
     28 N3          23.8220   -10.8510    43.6040 ns         1 CEH      -0.533900
     29 C24         22.5990    -8.8570    45.8380 c          1 CEH       0.662100
     30 O7          23.2320    -9.5040    46.6630 o          1 CEH      -0.669100
     31 C20         22.6160    -7.3460    45.7820 c3         1 CEH      -0.158400
     32 C25         25.2940   -15.0850    39.8080 c3         1 CEH      -0.074100
     33 C27         24.9490   -11.4120    42.9010 c3         1 CEH       0.031700
     34 C28         26.0390   -10.3610    42.7320 c3         1 CEH      -0.099100
     35 C29         24.5150   -11.9130    41.5220 c          1 CEH       0.652100
     36 O8          23.7670   -11.2400    40.8270 o          1 CEH      -0.590100
     37 N6          25.0190   -13.0950    41.1580 ns         1 CEH      -0.530900
     38 C30         24.9150   -13.6090    39.8090 c3         1 CEH      -0.037300
     39 C31         25.7810   -12.8210    38.7870 c          1 CEH       0.928600
     40 O9          26.6110   -12.0090    39.2310 o          1 CEH      -0.844800
     41 O10         25.5610   -13.1110    37.5940 o          1 CEH      -0.844800
     42 C21         22.9290    -6.6920    47.1210 c3         1 CEH      -0.041400
     43 C22         22.8140    -5.1660    47.0770 c3         1 CEH      -0.031300
     44 C23         23.9630    -4.4220    46.3290 c          1 CEH       0.941600
     45 N5          22.5960    -4.6060    48.3990 ns         1 CEH      -0.522900
     46 C26         23.5440    -4.5150    49.3400 c          1 CEH       0.664100
     47 O5          24.7130    -5.1130    45.6130 o          1 CEH      -0.832300
     48 O6          23.9920    -3.1880    46.4750 o          1 CEH      -0.832300
     49 O13         14.9780    -9.2610    38.5750 o          1 CEH      -0.829300
     50 C32         23.1250    -3.8330    50.6220 c3         1 CEH      -0.180100
     51 O12         24.6800    -4.9540    49.1960 o          1 CEH      -0.613100
     52 H11         16.2230   -11.3320    43.4130 h1         1 CEH       0.027200
     53 H12A        17.5140   -12.4790    43.7110 h1         1 CEH       0.027200
     54 HN1         17.8920    -9.1030    40.2790 hn         1 CEH       0.479800
     55 H4          15.5920   -10.5230    40.9320 h2         1 CEH       0.060700
     56 H51         19.3320    -9.6350    44.7510 hc         1 CEH       0.023200
     57 H52         18.7730   -11.2520    45.0810 hc         1 CEH       0.023200
     58 HN2         18.5700   -10.5210    38.4170 hn         1 CEH       0.344500
     59 H7          15.9020   -11.6510    38.8200 h1         1 CEH       0.063700
     60 H101        19.7650   -13.1230    36.8950 hc         1 CEH       0.058700
     61 H102        20.2690   -11.7500    37.8700 hc         1 CEH       0.058700
     62 H12         20.5430   -12.1980    40.4490 ha         1 CEH       0.135000
     63 H13         21.5990   -13.7430    42.0490 ha         1 CEH       0.118500
     64 H14         22.0720   -16.0810    41.3940 ha         1 CEH       0.103000
     65 H15         21.5070   -16.8520    39.1110 ha         1 CEH       0.118500
     66 H16         20.4580   -15.3040    37.5070 ha         1 CEH       0.135000
     67 H171        20.4510   -12.2870    43.7720 hc         1 CEH       0.061200
     68 H172        20.7960   -10.8340    42.8630 hc         1 CEH       0.061200
     69 H18         21.4940   -11.2900    45.7950 h1         1 CEH       0.055700
     70 HN4         21.2900    -8.8860    44.2460 hn         1 CEH       0.396500
     71 HN3         23.5940    -9.8830    43.4370 hn         1 CEH       0.345500
     72 H201        23.3650    -7.0470    45.0450 hc         1 CEH       0.085700
     73 H202        21.6570    -6.9860    45.3980 hc         1 CEH       0.085700
     74 H253        24.6670   -15.6530    40.4960 hc         1 CEH       0.012367
     75 H27         25.3420   -12.2370    43.4980 h1         1 CEH       0.050700
     76 H281        26.8870   -10.7750    42.1870 hc         1 CEH       0.046033
     77 H282        25.6700    -9.4990    42.1740 hc         1 CEH       0.046033
     78 H283        26.3910   -10.0170    43.7040 hc         1 CEH       0.046033
     79 HN6         25.6950   -13.5280    41.7690 hn         1 CEH       0.279500
     80 H30         23.8690   -13.5280    39.5010 h1         1 CEH       0.077700
     81 H211        22.2180    -7.0610    47.8650 hc         1 CEH       0.033200
     82 H212        23.9220    -6.9830    47.4620 hc         1 CEH       0.033200
     83 H22         21.8980    -4.9230    46.5260 h1         1 CEH       0.031700
     84 HN5         21.6950    -4.2020    48.5920 hn         1 CEH       0.278500
     85 H321        23.7500    -2.9540    50.7830 hc         1 CEH       0.029700
     86 H322        22.0830    -3.5180    50.6350 hc         1 CEH       0.029700
     87 H323        23.2920    -4.5050    51.4640 hc         1 CEH       0.029700
     88 H251        25.1650   -15.5040    38.8120 hc         1 CEH       0.012367
     89 O3          17.0830    -8.8410    37.9410 o          1 CEH      -0.829300
     90 H252        26.3370   -15.2280    40.1010 hc         1 CEH       0.012367
@<TRIPOS>BOND
     1     1     2 1   
     2     1     6 1   
     3     2     3 1   
     4     2    52 1   
     5     2    53 1   
     6     3     4 2   
     7     3     7 1   
     8     4     5 1   
     9     4     8 1   
    10     5     6 1   
    11     5    54 1   
    12     6    12 1   
    13     6    55 1   
    14     7    23 1   
    15     7    56 1   
    16     7    57 1   
    17     8     9 1   
    18     8    10 1   
    19    11    12 1   
    20    11    14 1   
    21    11    58 1   
    22    12    13 1   
    23    12    59 1   
    24    13    49 1   
    25    13    89 1   
    26    14    15 1   
    27    14    22 2   
    28    15    16 1   
    29    15    60 1   
    30    15    61 1   
    31    16    17 ar  
    32    16    21 ar  
    33    17    18 ar  
    34    17    62 1   
    35    18    19 ar  
    36    18    63 1   
    37    19    20 ar  
    38    19    64 1   
    39    20    21 ar  
    40    20    65 1   
    41    21    66 1   
    42    23    24 1   
    43    23    67 1   
    44    23    68 1   
    45    24    25 1   
    46    24    26 1   
    47    24    69 1   
    48    25    27 2   
    49    25    28 1   
    50    26    29 1   
    51    26    70 1   
    52    28    33 1   
    53    28    71 1   
    54    29    30 2   
    55    29    31 1   
    56    31    42 1   
    57    31    72 1   
    58    31    73 1   
    59    32    38 1   
    60    32    74 1   
    61    32    88 1   
    62    32    90 1   
    63    33    34 1   
    64    33    35 1   
    65    33    75 1   
    66    34    76 1   
    67    34    77 1   
    68    34    78 1   
    69    35    36 2   
    70    35    37 1   
    71    37    38 1   
    72    37    79 1   
    73    38    39 1   
    74    38    80 1   
    75    39    40 1   
    76    39    41 1   
    77    42    43 1   
    78    42    81 1   
    79    42    82 1   
    80    43    44 1   
    81    43    45 1   
    82    43    83 1   
    83    44    47 1   
    84    44    48 1   
    85    45    46 1   
    86    45    84 1   
    87    46    50 1   
    88    46    51 2   
    89    50    85 1   
    90    50    86 1   
    91    50    87 1   
@<TRIPOS>SUBSTRUCTURE
     1 CEH         1 TEMP              0 ****  ****    0 ROOT
