@<TRIPOS>MOLECULE
CEH
   90    91     1     0     0
SMALL
No Charge or Current Charge


@<TRIPOS>ATOM
      1 S1          16.6120   -12.1650    42.5510 ss         1 CEH      -0.566000
      2 C1          17.0880   -11.4170    44.1460 c6         1 CEH       0.158800
      3 C2          18.2250   -10.4340    43.9850 c2         1 CEH      -0.312400
      4 C3          18.1930    -9.5310    42.9610 ce         1 CEH       0.089800
      5 N1          17.0880    -9.4850    42.0540 nu         1 CEH      -0.810200
      6 C4          16.2130   -10.5990    41.6590 c6         1 CEH       0.416500
      7 C5          19.3480   -10.6280    44.9960 c3         1 CEH       0.031800
      8 C6          19.3250    -8.5200    42.5930 c          1 CEH       0.717200
      9 O1          19.1240    -7.7750    41.6380 o          1 CEH      -0.714000
     10 O2          20.3850    -8.5030    43.2060 o          1 CEH      -0.714000
     11 N2          17.7450   -10.9940    39.6690 ns         1 CEH      -0.454900
     12 C7          16.3320   -10.8320    40.1270 c3         1 CEH      -0.052300
     13 C8          15.6360    -9.6850    39.3590 c          1 CEH       0.720000
     14 C9          18.2600   -12.0850    39.0070 c          1 CEH       0.602100
     15 C10         19.7770   -12.0310    38.7660 c3         1 CEH      -0.112100
     16 C11         20.5450   -13.0240    39.6400 ca         1 CEH      -0.052300
     17 C12         20.2250   -13.1910    41.0030 ca         1 CEH      -0.079500
     18 C13         20.9430   -14.1060    41.7940 ca         1 CEH      -0.115500
     19 C14         21.9920   -14.8510    41.2340 ca         1 CEH      -0.124000
     20 C15         22.3260   -14.6800    39.8810 ca         1 CEH      -0.115500
     21 C16         21.6050   -13.7720    39.0870 ca         1 CEH      -0.079500
     22 O11         17.5620   -13.0140    38.6190 o          1 CEH      -0.665100
     23 C17         20.4530   -11.5480    44.4260 c3         1 CEH      -0.087400
     24 C18         21.8720   -11.3100    44.9900 c3         1 CEH       0.042700
     25 C19         22.8580   -12.3720    44.4120 c          1 CEH       0.600100
     26 N4          22.2980    -9.9210    44.6990 ns         1 CEH      -0.518900
     27 O4          22.9080   -13.5220    44.8340 o          1 CEH      -0.672100
     28 N3          23.6950   -11.9310    43.4080 ns         1 CEH      -0.466900
     29 C24         23.3000    -9.2590    45.3630 c          1 CEH       0.595100
     30 O7          24.0260    -9.8240    46.1670 o          1 CEH      -0.669100
     31 C20         23.4690    -7.7860    44.9880 c3         1 CEH      -0.158400
     32 C25         24.9560   -12.6610    38.0600 c3         1 CEH      -0.074100
     33 C27         24.6810   -12.7550    42.6820 c3         1 CEH       0.031700
     34 C28         25.9600   -12.9540    43.5270 c3         1 CEH      -0.099100
     35 C29         24.9930   -12.1170    41.2970 c          1 CEH       0.585100
     36 O8          24.6390   -10.9840    40.9910 o          1 CEH      -0.590100
     37 N6          25.7130   -12.9190    40.4330 ns         1 CEH      -0.463900
     38 C30         26.1280   -12.5430    39.0600 c3         1 CEH      -0.037300
     39 C31         27.3630   -13.3790    38.6000 c          1 CEH       0.718000
     40 O9          27.3750   -14.5830    38.8250 o          1 CEH      -0.739500
     41 O10         28.3190   -12.7800    38.1270 o          1 CEH      -0.739500
     42 C21         22.9120    -6.8580    46.0960 c3         1 CEH      -0.041400
     43 C22         22.9720    -5.3440    45.7410 c3         1 CEH      -0.031300
     44 C23         24.4140    -4.7240    45.6680 c          1 CEH       0.731000
     45 N5          22.0890    -4.5290    46.6140 ns         1 CEH      -0.455900
     46 C26         22.2140    -4.3720    47.9790 c          1 CEH       0.597100
     47 O5          25.3620    -5.3190    46.1650 o          1 CEH      -0.727000
     48 O6          24.5420    -3.6630    45.0690 o          1 CEH      -0.727000
     49 O13         14.6600    -9.9560    38.6740 o          1 CEH      -0.724000
     50 C32         21.1470    -3.4790    48.6100 c3         1 CEH      -0.180100
     51 O12         23.1000    -4.8940    48.6390 o          1 CEH      -0.613100
     52 H11         16.2070   -10.9090    44.5640 h1         1 CEH       0.027200
     53 H12A        17.3610   -12.2370    44.8260 h1         1 CEH       0.027200
     54 HN1         17.1660    -8.7370    41.3540 hn         1 CEH       0.535000
     55 H4          15.1650   -10.3620    41.9050 h2         1 CEH       0.060700
     56 H51         19.7550    -9.6590    45.3030 hc         1 CEH       0.023200
     57 H52         18.9700   -11.0670    45.9280 hc         1 CEH       0.023200
     58 HN2         18.4120   -10.2840    39.9470 hn         1 CEH       0.344500
     59 H7          15.7760   -11.7480    39.8970 h1         1 CEH       0.063700
     60 H101        19.9550   -12.2600    37.7090 hc         1 CEH       0.058700
     61 H102        20.1510   -11.0220    38.9760 hc         1 CEH       0.058700
     62 H12         19.4180   -12.6190    41.4540 ha         1 CEH       0.117000
     63 H13         20.6840   -14.2390    42.8410 ha         1 CEH       0.100500
     64 H14         22.5470   -15.5560    41.8480 ha         1 CEH       0.085000
     65 H15         23.1420   -15.2540    39.4470 ha         1 CEH       0.100500
     66 H16         21.8730   -13.6490    38.0400 ha         1 CEH       0.117000
     67 H171        20.1600   -12.5910    44.5960 hc         1 CEH       0.061200
     68 H172        20.5010   -11.4160    43.3390 hc         1 CEH       0.061200
     69 H18         21.8480   -11.4460    46.0790 h1         1 CEH       0.055700
     70 HN4         21.6930    -9.3490    44.1020 hn         1 CEH       0.396500
     71 HN3         23.5760   -10.9650    43.1230 hn         1 CEH       0.345500
     72 H201        24.5370    -7.5830    44.8550 hc         1 CEH       0.085700
     73 H202        22.9290    -7.5750    44.0580 hc         1 CEH       0.085700
     74 H253        24.1130   -12.0320    38.3680 hc         1 CEH       0.012367
     75 H27         24.2340   -13.7390    42.4890 h1         1 CEH       0.050700
     76 H281        26.6770   -13.5990    43.0050 hc         1 CEH       0.046033
     77 H282        26.4460   -11.9910    43.7260 hc         1 CEH       0.046033
     78 H283        25.7230   -13.4250    44.4880 hc         1 CEH       0.046033
     79 HN6         25.9700   -13.8410    40.7670 hn         1 CEH       0.279500
     80 H30         26.4510   -11.4940    39.0820 h1         1 CEH       0.077700
     81 H211        21.8640    -7.1320    46.2710 hc         1 CEH       0.033200
     82 H212        23.4440    -7.0480    47.0360 hc         1 CEH       0.033200
     83 H22         22.5570    -5.2450    44.7300 h1         1 CEH       0.031700
     84 HN5         21.3220    -4.0300    46.1790 hn         1 CEH       0.278500
     85 H321        21.1460    -2.5070    48.1020 hc         1 CEH       0.029700
     86 H322        20.1550    -3.8700    48.3550 hc         1 CEH       0.029700
     87 H323        21.2690    -3.3670    49.6930 hc         1 CEH       0.029700
     88 H251        25.2730   -12.3390    37.0610 hc         1 CEH       0.012367
     89 O3          16.1200    -8.5620    39.4260 o          1 CEH      -0.724000
     90 H252        24.6070   -13.6980    37.9900 hc         1 CEH       0.012367
@<TRIPOS>BOND
     1     1     2 1   
     2     1     6 1   
     3     2     3 1   
     4     2    52 1   
     5     2    53 1   
     6     3     4 2   
     7     3     7 1   
     8     4     5 1   
     9     4     8 1   
    10     5     6 1   
    11     5    54 1   
    12     6    12 1   
    13     6    55 1   
    14     7    23 1   
    15     7    56 1   
    16     7    57 1   
    17     8     9 1   
    18     8    10 1   
    19    11    12 1   
    20    11    14 1   
    21    11    58 1   
    22    12    13 1   
    23    12    59 1   
    24    13    49 1   
    25    13    89 1   
    26    14    15 1   
    27    14    22 2   
    28    15    16 1   
    29    15    60 1   
    30    15    61 1   
    31    16    17 ar  
    32    16    21 ar  
    33    17    18 ar  
    34    17    62 1   
    35    18    19 ar  
    36    18    63 1   
    37    19    20 ar  
    38    19    64 1   
    39    20    21 ar  
    40    20    65 1   
    41    21    66 1   
    42    23    24 1   
    43    23    67 1   
    44    23    68 1   
    45    24    25 1   
    46    24    26 1   
    47    24    69 1   
    48    25    27 2   
    49    25    28 1   
    50    26    29 1   
    51    26    70 1   
    52    28    33 1   
    53    28    71 1   
    54    29    30 2   
    55    29    31 1   
    56    31    42 1   
    57    31    72 1   
    58    31    73 1   
    59    32    38 1   
    60    32    74 1   
    61    32    88 1   
    62    32    90 1   
    63    33    34 1   
    64    33    35 1   
    65    33    75 1   
    66    34    76 1   
    67    34    77 1   
    68    34    78 1   
    69    35    36 2   
    70    35    37 1   
    71    37    38 1   
    72    37    79 1   
    73    38    39 1   
    74    38    80 1   
    75    39    40 1   
    76    39    41 1   
    77    42    43 1   
    78    42    81 1   
    79    42    82 1   
    80    43    44 1   
    81    43    45 1   
    82    43    83 1   
    83    44    47 1   
    84    44    48 1   
    85    45    46 1   
    86    45    84 1   
    87    46    50 1   
    88    46    51 2   
    89    50    85 1   
    90    50    86 1   
    91    50    87 1   
@<TRIPOS>SUBSTRUCTURE
     1 CEH         1 TEMP              0 ****  ****    0 ROOT
