@<TRIPOS>MOLECULE
CEI
   52    55     1     0     0
SMALL
No Charge or Current Charge


@<TRIPOS>ATOM
      1 O33         -1.9410    -1.7460     2.1420 o          1 CEI      -0.537100
      2 C2          -0.7280    -1.5780     2.1440 c          1 CEI       0.611100
      3 C10          0.1010    -1.6860     3.4310 c3         1 CEI      -0.104100
      4 C11          0.0210    -0.3920     4.2360 ca         1 CEI      -0.109300
      5 C12          0.7670     0.7340     3.8370 ca         1 CEI      -0.054500
      6 C13          0.6940     1.9290     4.5730 ca         1 CEI      -0.175000
      7 C14         -0.1240     2.0060     5.7090 ca         1 CEI       0.144100
      8 O17         -0.1890     3.1690     6.4150 oh         1 CEI      -0.534100
      9 C15         -0.8730     0.8890     6.1120 ca         1 CEI      -0.175000
     10 C16         -0.8020    -0.3080     5.3770 ca         1 CEI      -0.054500
     11 N1           0.0210    -1.2750     1.0260 ns         1 CEI      -0.338900
     12 C9          -0.3430    -1.0210    -0.3140 ca         1 CEI       0.431900
     13 C8           0.6070    -1.0820    -1.3850 ca         1 CEI       0.292300
     14 C26          2.0640    -1.4910    -1.1620 c3         1 CEI      -0.080400
     15 C27          2.7710    -0.6330    -0.1160 ca         1 CEI      -0.084300
     16 C28          2.8300     0.7660    -0.2690 ca         1 CEI      -0.106000
     17 C29          3.4620     1.5600     0.7040 ca         1 CEI      -0.106500
     18 C30          4.0420     0.9600     1.8340 ca         1 CEI      -0.111000
     19 C31          3.9890    -0.4350     1.9910 ca         1 CEI      -0.106500
     20 C32          3.3570    -1.2290     1.0190 ca         1 CEI      -0.106000
     21 N7           0.2620    -0.7850    -2.6690 nb         1 CEI      -0.645000
     22 C6          -1.0270    -0.4060    -2.8920 cp         1 CEI       0.356500
     23 C5          -1.9590    -0.3390    -1.8000 ca         1 CEI       0.319900
     24 N4          -1.6280    -0.6350    -0.5120 nb         1 CEI      -0.634000
     25 C19         -1.3970    -0.0780    -4.3180 cp         1 CEI      -0.184500
     26 C20         -2.5740     0.6590    -4.6290 ca         1 CEI      -0.041500
     27 C21         -2.9160     0.9600    -5.9600 ca         1 CEI      -0.184500
     28 C22         -2.0930     0.5370    -7.0110 ca         1 CEI       0.153100
     29 O25         -2.4180     0.8260    -8.3020 oh         1 CEI      -0.529100
     30 C23         -0.9270    -0.1860    -6.7360 ca         1 CEI      -0.184500
     31 C24         -0.5800    -0.4900    -5.4080 ca         1 CEI      -0.041500
     32 H101        -0.2810    -2.5230     4.0270 hc         1 CEI       0.062700
     33 H102         1.1520    -1.8700     3.1790 hc         1 CEI       0.062700
     34 H12          1.4030     0.6860     2.9550 ha         1 CEI       0.115000
     35 H13          1.2730     2.7940     4.2600 ha         1 CEI       0.120000
     36 H17         -0.8040     3.0400     7.1690 ho         1 CEI       0.464000
     37 H15         -1.5120     0.9410     6.9900 ha         1 CEI       0.120000
     38 H16         -1.3880    -1.1680     5.6950 ha         1 CEI       0.115000
     39 HN1          1.0160    -1.2030     1.1930 hn         1 CEI       0.158000
     40 H261         2.6230    -1.4330    -2.1040 hc         1 CEI       0.066700
     41 H262         2.0930    -2.5480    -0.8730 hc         1 CEI       0.066700
     42 H28          2.3850     1.2400    -1.1410 ha         1 CEI       0.114000
     43 H29          3.5030     2.6400     0.5810 ha         1 CEI       0.116000
     44 H30          4.5310     1.5750     2.5870 ha         1 CEI       0.115000
     45 H31          4.4380    -0.9000     2.8660 ha         1 CEI       0.116000
     46 H32          3.3230    -2.3090     1.1530 ha         1 CEI       0.114000
     47 H5          -2.9950    -0.0510    -1.9620 h4         1 CEI       0.033100
     48 H20         -3.2310     1.0170    -3.8400 ha         1 CEI       0.124000
     49 H21         -3.8210     1.5270    -6.1630 ha         1 CEI       0.123000
     50 H25         -3.2580     1.3330    -8.3030 ho         1 CEI       0.467000
     51 H23         -0.2870    -0.5150    -7.5510 ha         1 CEI       0.123000
     52 H24          0.3310    -1.0580    -5.2290 ha         1 CEI       0.124000
@<TRIPOS>BOND
     1     1     2 2   
     2     2     3 1   
     3     2    11 1   
     4     3     4 1   
     5     3    32 1   
     6     3    33 1   
     7     4     5 ar  
     8     4    10 ar  
     9     5     6 ar  
    10     5    34 1   
    11     6     7 ar  
    12     6    35 1   
    13     7     8 1   
    14     7     9 ar  
    15     8    36 1   
    16     9    10 ar  
    17     9    37 1   
    18    10    38 1   
    19    11    12 1   
    20    11    39 1   
    21    12    13 ar  
    22    12    24 ar  
    23    13    14 1   
    24    13    21 ar  
    25    14    15 1   
    26    14    40 1   
    27    14    41 1   
    28    15    16 ar  
    29    15    20 ar  
    30    16    17 ar  
    31    16    42 1   
    32    17    18 ar  
    33    17    43 1   
    34    18    19 ar  
    35    18    44 1   
    36    19    20 ar  
    37    19    45 1   
    38    20    46 1   
    39    21    22 ar  
    40    22    23 ar  
    41    22    25 1   
    42    23    24 ar  
    43    23    47 1   
    44    25    26 ar  
    45    25    31 ar  
    46    26    27 ar  
    47    26    48 1   
    48    27    28 ar  
    49    27    49 1   
    50    28    29 1   
    51    28    30 ar  
    52    29    50 1   
    53    30    31 ar  
    54    30    51 1   
    55    31    52 1   
@<TRIPOS>SUBSTRUCTURE
     1 CEI         1 TEMP              0 ****  ****    0 ROOT
