@<TRIPOS>MOLECULE
CEI
   52    55     1     0     0
SMALL
bcc


@<TRIPOS>ATOM
      1 O33         -1.1780     0.1210     1.8590 o          1 CEI      -0.537100
      2 C2          -0.4470    -0.8420     1.9240 c          1 CEI       0.678100
      3 C10          0.1220    -1.3690     3.2290 c3         1 CEI      -0.104100
      4 C11          0.1120    -0.3390     4.3170 ca         1 CEI      -0.109300
      5 C12          1.0020     0.7330     4.2840 ca         1 CEI      -0.072500
      6 C13          1.0070     1.6990     5.2740 ca         1 CEI      -0.193000
      7 C14          0.1080     1.6100     6.3360 ca         1 CEI       0.144100
      8 O17          0.1490     2.5740     7.2790 oh         1 CEI      -0.495100
      9 C15         -0.7860     0.5460     6.3850 ca         1 CEI      -0.193000
     10 C16         -0.7780    -0.4130     5.3800 ca         1 CEI      -0.072500
     11 N1          -0.0670    -1.5660     0.8310 ns         1 CEI      -0.572400
     12 C9          -0.4210    -1.2480    -0.4800 ca         1 CEI       0.431900
     13 C8           0.5650    -1.1610    -1.4750 ca         1 CEI       0.292300
     14 C26          2.0180    -1.3940    -1.1740 c3         1 CEI      -0.080400
     15 C27          2.5880    -0.3960    -0.1930 ca         1 CEI      -0.084300
     16 C28          2.4200     0.9720    -0.3950 ca         1 CEI      -0.124000
     17 C29          2.9600     1.8900     0.4940 ca         1 CEI      -0.124500
     18 C30          3.6830     1.4540     1.5970 ca         1 CEI      -0.129000
     19 C31          3.8570     0.0930     1.8060 ca         1 CEI      -0.124500
     20 C32          3.3090    -0.8240     0.9180 ca         1 CEI      -0.124000
     21 N7           0.2240    -0.8530    -2.7120 nb         1 CEI      -0.645000
     22 C6          -1.0550    -0.6160    -3.0040 cp         1 CEI       0.356500
     23 C5          -2.0150    -0.7290    -2.0000 ca         1 CEI       0.319900
     24 N4          -1.6930    -1.0460    -0.7570 nb         1 CEI      -0.634000
     25 C19         -1.3900    -0.2530    -4.3900 cp         1 CEI      -0.184500
     26 C20         -2.5890     0.3820    -4.7140 ca         1 CEI      -0.059500
     27 C21         -2.8930     0.7200    -6.0210 ca         1 CEI      -0.202500
     28 C22         -1.9940     0.4290    -7.0450 ca         1 CEI       0.153100
     29 O25         -2.2360     0.7330    -8.3310 oh         1 CEI      -0.490100
     30 C23         -0.7900    -0.2030    -6.7370 ca         1 CEI      -0.202500
     31 C24         -0.4970    -0.5330    -5.4280 ca         1 CEI      -0.059500
     32 H101        -0.4790    -2.2370     3.5180 hc         1 CEI       0.062700
     33 H102         1.1340    -1.7520     3.0640 hc         1 CEI       0.062700
     34 H12          1.7110     0.8170     3.4680 ha         1 CEI       0.133000
     35 H13          1.7060     2.5250     5.2300 ha         1 CEI       0.138000
     36 H17         -0.5130     2.4070     7.9580 ho         1 CEI       0.425000
     37 H15         -1.4910     0.4600     7.2050 ha         1 CEI       0.138000
     38 H16         -1.4830    -1.2330     5.4360 ha         1 CEI       0.133000
     39 HN1          0.6360    -2.2770     0.9620 hn         1 CEI       0.324500
     40 H261         2.5630    -1.3400    -2.1180 hc         1 CEI       0.066700
     41 H262         2.1710    -2.4090    -0.7950 hc         1 CEI       0.066700
     42 H28          1.8660     1.3270    -1.2560 ha         1 CEI       0.132000
     43 H29          2.8200     2.9490     0.3210 ha         1 CEI       0.134000
     44 H30          4.1040     2.1700     2.2910 ha         1 CEI       0.133000
     45 H31          4.4130    -0.2590     2.6660 ha         1 CEI       0.134000
     46 H32          3.4500    -1.8850     1.0900 ha         1 CEI       0.132000
     47 H5          -3.0690    -0.5870    -2.2030 h4         1 CEI       0.033100
     48 H20         -3.3030     0.6400    -3.9430 ha         1 CEI       0.142000
     49 H21         -3.8290     1.2190    -6.2420 ha         1 CEI       0.141000
     50 H25         -3.0890     1.1730    -8.4200 ho         1 CEI       0.428000
     51 H23         -0.0870    -0.4350    -7.5280 ha         1 CEI       0.141000
     52 H24          0.4400    -1.0250    -5.2050 ha         1 CEI       0.142000
@<TRIPOS>BOND
     1     1     2 2   
     2     2     3 1   
     3     2    11 1   
     4     3     4 1   
     5     3    32 1   
     6     3    33 1   
     7     4     5 ar  
     8     4    10 ar  
     9     5     6 ar  
    10     5    34 1   
    11     6     7 ar  
    12     6    35 1   
    13     7     8 1   
    14     7     9 ar  
    15     8    36 1   
    16     9    10 ar  
    17     9    37 1   
    18    10    38 1   
    19    11    12 1   
    20    11    39 1   
    21    12    13 ar  
    22    12    24 ar  
    23    13    14 1   
    24    13    21 ar  
    25    14    15 1   
    26    14    40 1   
    27    14    41 1   
    28    15    16 ar  
    29    15    20 ar  
    30    16    17 ar  
    31    16    42 1   
    32    17    18 ar  
    33    17    43 1   
    34    18    19 ar  
    35    18    44 1   
    36    19    20 ar  
    37    19    45 1   
    38    20    46 1   
    39    21    22 ar  
    40    22    23 ar  
    41    22    25 1   
    42    23    24 ar  
    43    23    47 1   
    44    25    26 ar  
    45    25    31 ar  
    46    26    27 ar  
    47    26    48 1   
    48    27    28 ar  
    49    27    49 1   
    50    28    29 1   
    51    28    30 ar  
    52    29    50 1   
    53    30    31 ar  
    54    30    51 1   
    55    31    52 1   
@<TRIPOS>SUBSTRUCTURE
     1 CEI         1 TEMP              0 ****  ****    0 ROOT
