@<TRIPOS>MOLECULE
CEJ
   13    13     1     0     0
SMALL
abcg2


@<TRIPOS>ATOM
      1 C1          -0.7300     1.2740    -0.1160 c5         1 CEJ      -0.187400
      2 O3          -2.3580    -0.4390     0.4060 o          1 CEJ      -0.499600
      3 C2          -1.2110    -0.1220     0.2160 c          1 CEJ       0.579100
      4 C7           1.1940    -0.1750     0.1850 c          1 CEJ       0.579100
      5 C5           0.7680     1.2780     0.1720 c5         1 CEJ      -0.187400
      6 O8           2.3340    -0.5650     0.1590 o          1 CEJ      -0.499600
      7 C10         -0.0280    -1.0590     0.2530 c5         1 CEJ      -0.311400
      8 H1C1        -0.9240     1.4370    -1.1810 hc         1 CEJ       0.079700
      9 H1C2        -1.2930     2.0290     0.4320 hc         1 CEJ       0.079700
     10 H5C1         1.3590     1.8530    -0.5390 hc         1 CEJ       0.079700
     11 H5C2         0.9770     1.6850     1.1660 hc         1 CEJ       0.079700
     12 H101        -0.0240    -1.6860     1.1490 hc         1 CEJ       0.105200
     13 H102        -0.0600    -1.7410    -0.6030 hc         1 CEJ       0.105200
@<TRIPOS>BOND
     1     1     3 1   
     2     1     5 1   
     3     1     8 1   
     4     1     9 1   
     5     2     3 2   
     6     3     7 1   
     7     4     5 1   
     8     4     6 2   
     9     4     7 1   
    10     5    10 1   
    11     5    11 1   
    12     7    12 1   
    13     7    13 1   
@<TRIPOS>SUBSTRUCTURE
     1 CEJ         1 TEMP              0 ****  ****    0 ROOT
