@<TRIPOS>MOLECULE
CEJ
   13    13     1     0     0
SMALL
No Charge or Current Charge


@<TRIPOS>ATOM
      1 C1          -0.6560     1.2160    -0.3310 c5         1 CEJ      -0.187400
      2 O3          -2.1740    -0.1840     0.9860 o          1 CEJ      -0.499600
      3 C2          -1.2170    -0.0910     0.2320 c          1 CEJ       0.579100
      4 C7           1.1990    -0.1570     0.1050 c          1 CEJ       0.579100
      5 C5           0.7000     1.2540     0.4210 c5         1 CEJ      -0.187400
      6 O8           2.1480    -0.4280    -0.6160 o          1 CEJ      -0.499600
      7 C10         -0.0300    -1.0640     0.2540 c5         1 CEJ      -0.311400
      8 H1C1        -0.4660     1.1110    -1.4070 hc         1 CEJ       0.079700
      9 H1C2        -1.3110     2.0680    -0.1150 hc         1 CEJ       0.079700
     10 H5C1         1.3910     2.0220     0.0560 hc         1 CEJ       0.079700
     11 H5C2         0.5090     1.3540     1.4960 hc         1 CEJ       0.079700
     12 H101        -0.0430    -1.5840     1.2160 hc         1 CEJ       0.105200
     13 H102        -0.0460    -1.7490    -0.5980 hc         1 CEJ       0.105200
@<TRIPOS>BOND
     1     1     3 1   
     2     1     5 1   
     3     1     8 1   
     4     1     9 1   
     5     2     3 2   
     6     3     7 1   
     7     4     5 1   
     8     4     6 2   
     9     4     7 1   
    10     5    10 1   
    11     5    11 1   
    12     7    12 1   
    13     7    13 1   
@<TRIPOS>SUBSTRUCTURE
     1 CEJ         1 TEMP              0 ****  ****    0 ROOT
