@<TRIPOS>MOLECULE
CEK
   59    63     1     0     0
SMALL
No Charge or Current Charge


@<TRIPOS>ATOM
      1 C1           5.5310    -2.1280    -1.6430 c3         1 CEK      -0.184100
      2 C2           4.1480    -2.7850    -1.5750 c          1 CEK       0.610300
      3 O3           4.0580    -3.9450    -1.9540 o          1 CEK      -0.529100
      4 C4           2.9730    -2.0210    -1.0190 ce         1 CEK      -0.410400
      5 C5           3.0650    -0.5190    -0.9000 c          1 CEK       0.646300
      6 C6           2.1340     0.0540     0.2070 c5         1 CEK      -0.106500
      7 C7           0.7820    -0.6300     0.1410 c2         1 CEK       0.179900
      8 C8           0.6470    -1.9080    -0.2150 cf         1 CEK      -0.356000
      9 C9           1.8090    -2.6450    -0.6490 cf         1 CEK       0.307100
     10 O10         -0.2110     0.2880     0.3460 os         1 CEK      -0.187200
     11 C11          0.2860     1.5490     0.2030 ca         1 CEK       0.185100
     12 C12          1.6530     1.4970     0.0390 ca         1 CEK      -0.301300
     13 C13         -0.4430     2.7540     0.2070 ca         1 CEK      -0.239600
     14 C14          0.2970     3.9500     0.0310 ca         1 CEK       0.252100
     15 C15          1.7020     3.8950    -0.1620 ca         1 CEK      -0.283000
     16 C16          2.3780     2.6710    -0.1650 ca         1 CEK       0.283100
     17 C17          2.7940    -0.1570     1.5960 c3         1 CEK      -0.071100
     18 O18          3.8220     0.1840    -1.5550 o          1 CEK      -0.576100
     19 O19          1.6240    -3.9670    -0.7060 oh         1 CEK      -0.474100
     20 O20          3.7130     2.6310    -0.3920 oh         1 CEK      -0.539100
     21 O21         -0.3740     5.1570    -0.0010 os         1 CEK      -0.317100
     22 C22          0.2950     6.4180    -0.1790 c3         1 CEK       0.144900
     23 C23         -1.9390     2.7630     0.3980 c          1 CEK       0.645700
     24 O24         -2.5540     3.6920     0.9020 o          1 CEK      -0.585100
     25 N25         -2.5860     1.6130     0.0240 ns         1 CEK      -0.501900
     26 C26         -3.9930     1.3140     0.2680 c3         1 CEK       0.148300
     27 C27         -4.3290    -0.0890    -0.2320 ca         1 CEK      -0.099300
     28 C28         -3.7940    -1.2610     0.3710 ca         1 CEK      -0.019000
     29 C29         -4.1080    -2.5310    -0.1740 ca         1 CEK      -0.044000
     30 C30         -4.9530    -2.6330    -1.2930 ca         1 CEK      -0.093000
     31 C31         -5.4850    -1.4770    -1.8800 ca         1 CEK      -0.109000
     32 C32         -5.1720    -0.2140    -1.3560 ca         1 CEK      -0.096000
     33 C33         -3.5740    -3.7030     0.3970 ca         1 CEK      -0.111000
     34 C34         -2.7270    -3.6240     1.5130 ca         1 CEK      -0.115000
     35 C35         -2.4140    -2.3730     2.0650 ca         1 CEK      -0.113000
     36 C36         -2.9450    -1.1990     1.5030 ca         1 CEK      -0.086000
     37 H1           6.3300    -2.8660    -1.7730 hc         1 CEK       0.062700
     38 H1A          5.5460    -1.4290    -2.4860 hc         1 CEK       0.062700
     39 H1B          5.6980    -1.4960    -0.7640 hc         1 CEK       0.062700
     40 H15          2.2850     4.7950    -0.3240 ha         1 CEK       0.143000
     41 H17          3.7420     0.3890     1.6720 hc         1 CEK       0.058700
     42 H17A         2.1410     0.2000     2.4020 hc         1 CEK       0.058700
     43 H17B         3.0030    -1.2170     1.7870 hc         1 CEK       0.058700
     44 HO19         0.7380    -4.1480    -0.3380 ho         1 CEK       0.484000
     45 HO20         3.8960     1.7470    -0.8000 ho         1 CEK       0.519000
     46 H22          1.0220     6.5910     0.6240 h1         1 CEK       0.049033
     47 H22A         0.8170     6.4510    -1.1440 h1         1 CEK       0.049033
     48 H22B        -0.4330     7.2390    -0.1600 h1         1 CEK       0.049033
     49 HN25        -2.0070     0.8800    -0.3650 hn         1 CEK       0.319500
     50 H26         -4.2020     1.3910     1.3430 h1         1 CEK       0.062700
     51 H26A        -4.6090     2.0620    -0.2490 h1         1 CEK       0.062700
     52 H30         -5.1960    -3.6070    -1.7110 ha         1 CEK       0.114000
     53 H31         -6.1370    -1.5590    -2.7480 ha         1 CEK       0.117000
     54 H32         -5.5830     0.6740    -1.8310 ha         1 CEK       0.114000
     55 H33         -3.8150    -4.6760    -0.0240 ha         1 CEK       0.112000
     56 H34         -2.3160    -4.5310     1.9510 ha         1 CEK       0.113000
     57 H35         -1.7600    -2.3100     2.9320 ha         1 CEK       0.117000
     58 H36         -2.6850    -0.2500     1.9620 ha         1 CEK       0.128000
     59 H8          -0.3470    -2.3510    -0.2840 ha         1 CEK       0.223000
@<TRIPOS>BOND
     1     1     2 1   
     2     1    37 1   
     3     1    38 1   
     4     1    39 1   
     5     2     3 2   
     6     2     4 1   
     7     4     5 1   
     8     4     9 2   
     9     5     6 1   
    10     5    18 2   
    11     6     7 1   
    12     6    12 1   
    13     6    17 1   
    14     7     8 2   
    15     7    10 1   
    16     8     9 1   
    17     8    59 1   
    18     9    19 1   
    19    10    11 1   
    20    11    12 ar  
    21    11    13 ar  
    22    12    16 ar  
    23    13    14 ar  
    24    13    23 1   
    25    14    15 ar  
    26    14    21 1   
    27    15    16 ar  
    28    15    40 1   
    29    16    20 1   
    30    17    41 1   
    31    17    42 1   
    32    17    43 1   
    33    19    44 1   
    34    20    45 1   
    35    21    22 1   
    36    22    46 1   
    37    22    47 1   
    38    22    48 1   
    39    23    24 2   
    40    23    25 1   
    41    25    26 1   
    42    25    49 1   
    43    26    27 1   
    44    26    50 1   
    45    26    51 1   
    46    27    28 ar  
    47    27    32 ar  
    48    28    29 ar  
    49    28    36 ar  
    50    29    30 ar  
    51    29    33 ar  
    52    30    31 ar  
    53    30    52 1   
    54    31    32 ar  
    55    31    53 1   
    56    32    54 1   
    57    33    34 ar  
    58    33    55 1   
    59    34    35 ar  
    60    34    56 1   
    61    35    36 ar  
    62    35    57 1   
    63    36    58 1   
@<TRIPOS>SUBSTRUCTURE
     1 CEK         1 TEMP              0 ****  ****    0 ROOT
