@<TRIPOS>MOLECULE
CEK
   59    63     1     0     0
SMALL
bcc


@<TRIPOS>ATOM
      1 C1           4.9500    -2.2190    -2.4630 c3         1 CEK      -0.184100
      2 C2           4.0990    -2.8540    -1.3950 c          1 CEK       0.610300
      3 O3           4.3080    -4.0020    -1.0550 o          1 CEK      -0.529100
      4 C4           2.9990    -2.0660    -0.7890 ce         1 CEK      -0.410400
      5 C5           3.1280    -0.6460    -0.5870 c          1 CEK       0.646300
      6 C6           2.1120    -0.0020     0.3300 c5         1 CEK      -0.106500
      7 C7           0.7910    -0.6810     0.3050 c2         1 CEK       0.179900
      8 C8           0.6420    -1.9840     0.0480 cf         1 CEK      -0.306000
      9 C9           1.8090    -2.6920    -0.4130 cf         1 CEK       0.307100
     10 O10         -0.2010     0.1930     0.5060 os         1 CEK      -0.187200
     11 C11          0.3140     1.4540     0.3120 ca         1 CEK       0.185100
     12 C12          1.6760     1.4130     0.0840 ca         1 CEK      -0.301300
     13 C13         -0.4500     2.5950     0.3620 ca         1 CEK      -0.239600
     14 C14          0.2550     3.7990     0.1600 ca         1 CEK       0.252100
     15 C15          1.6220     3.8000    -0.0980 ca         1 CEK      -0.301000
     16 C16          2.3510     2.6040    -0.1310 ca         1 CEK       0.283100
     17 C17          2.7040    -0.1320     1.7660 c3         1 CEK      -0.071100
     18 O18          4.0650     0.0450    -0.9810 o          1 CEK      -0.576100
     19 O19          1.6860    -3.9860    -0.6020 oh         1 CEK      -0.435100
     20 O20          3.6600     2.6590    -0.3720 oh         1 CEK      -0.500100
     21 O21         -0.4930     4.9060     0.1890 os         1 CEK      -0.293900
     22 C22          0.1240     6.1610    -0.0370 c3         1 CEK       0.121700
     23 C23         -1.9120     2.5490     0.6710 c          1 CEK       0.712700
     24 O24         -2.3910     3.0920     1.6540 o          1 CEK      -0.585100
     25 N25         -2.6230     1.8250    -0.2070 ns         1 CEK      -0.568900
     26 C26         -4.0110     1.4460    -0.0370 c3         1 CEK       0.148300
     27 C27         -4.2070     0.0190    -0.4780 ca         1 CEK      -0.099300
     28 C28         -3.6790    -1.0670     0.2810 ca         1 CEK      -0.019000
     29 C29         -3.8060    -2.3880    -0.2300 ca         1 CEK      -0.044000
     30 C30         -4.4750    -2.6000    -1.4590 ca         1 CEK      -0.111000
     31 C31         -4.9950    -1.5470    -2.1550 ca         1 CEK      -0.127000
     32 C32         -4.8500    -0.2350    -1.6610 ca         1 CEK      -0.114000
     33 C33         -3.2660    -3.4720     0.5010 ca         1 CEK      -0.129000
     34 C34         -2.6380    -3.2670     1.6990 ca         1 CEK      -0.133000
     35 C35         -2.5280    -1.9620     2.2190 ca         1 CEK      -0.131000
     36 C36         -3.0310    -0.8930     1.5280 ca         1 CEK      -0.104000
     37 H1           5.4440    -3.0020    -3.0370 hc         1 CEK       0.062700
     38 H1A          4.3720    -1.5870    -3.1350 hc         1 CEK       0.062700
     39 H1B          5.7210    -1.5920    -2.0140 hc         1 CEK       0.062700
     40 H15          2.1520     4.7220    -0.2930 ha         1 CEK       0.161000
     41 H17          3.6190     0.4540     1.8310 hc         1 CEK       0.058700
     42 H17A         1.9960     0.2580     2.4970 hc         1 CEK       0.058700
     43 H17B         2.9270    -1.1700     2.0090 hc         1 CEK       0.058700
     44 HO19         0.8040    -4.2970    -0.3610 ho         1 CEK       0.445000
     45 HO20         3.9870     1.7530    -0.5750 ho         1 CEK       0.480000
     46 H22          0.8920     6.3740     0.7100 h1         1 CEK       0.049033
     47 H22A         0.5690     6.2180    -1.0330 h1         1 CEK       0.049033
     48 H22B        -0.6620     6.9060     0.0440 h1         1 CEK       0.049033
     49 HN25        -2.1590     1.4880    -1.0360 hn         1 CEK       0.319500
     50 H26         -4.2850     1.5900     1.0090 h1         1 CEK       0.062700
     51 H26A        -4.6610     2.1010    -0.6230 h1         1 CEK       0.062700
     52 H30         -4.5720    -3.6110    -1.8350 ha         1 CEK       0.132000
     53 H31         -5.5120    -1.7110    -3.0910 ha         1 CEK       0.135000
     54 H32         -5.2500     0.5920    -2.2360 ha         1 CEK       0.132000
     55 H33         -3.3650    -4.4730     0.0990 ha         1 CEK       0.130000
     56 H34         -2.2280    -4.1030     2.2500 ha         1 CEK       0.131000
     57 H35         -2.0380    -1.8020     3.1700 ha         1 CEK       0.135000
     58 H36         -2.9290     0.0950     1.9540 ha         1 CEK       0.146000
     59 H8          -0.3270    -2.4710     0.0670 ha         1 CEK       0.173000
@<TRIPOS>BOND
     1     1     2 1   
     2     1    37 1   
     3     1    38 1   
     4     1    39 1   
     5     2     3 2   
     6     2     4 1   
     7     4     5 1   
     8     4     9 2   
     9     5     6 1   
    10     5    18 2   
    11     6     7 1   
    12     6    12 1   
    13     6    17 1   
    14     7     8 2   
    15     7    10 1   
    16     8     9 1   
    17     8    59 1   
    18     9    19 1   
    19    10    11 1   
    20    11    12 ar  
    21    11    13 ar  
    22    12    16 ar  
    23    13    14 ar  
    24    13    23 1   
    25    14    15 ar  
    26    14    21 1   
    27    15    16 ar  
    28    15    40 1   
    29    16    20 1   
    30    17    41 1   
    31    17    42 1   
    32    17    43 1   
    33    19    44 1   
    34    20    45 1   
    35    21    22 1   
    36    22    46 1   
    37    22    47 1   
    38    22    48 1   
    39    23    24 2   
    40    23    25 1   
    41    25    26 1   
    42    25    49 1   
    43    26    27 1   
    44    26    50 1   
    45    26    51 1   
    46    27    28 ar  
    47    27    32 ar  
    48    28    29 ar  
    49    28    36 ar  
    50    29    30 ar  
    51    29    33 ar  
    52    30    31 ar  
    53    30    52 1   
    54    31    32 ar  
    55    31    53 1   
    56    32    54 1   
    57    33    34 ar  
    58    33    55 1   
    59    34    35 ar  
    60    34    56 1   
    61    35    36 ar  
    62    35    57 1   
    63    36    58 1   
@<TRIPOS>SUBSTRUCTURE
     1 CEK         1 TEMP              0 ****  ****    0 ROOT
