@<TRIPOS>MOLECULE
CEL
   40    42     1     0     0
SMALL
No Charge or Current Charge


@<TRIPOS>ATOM
      1 S1          -1.3770     0.1450    -4.8090 sy         1 CEL       1.129600
      2 C15         -1.1270     0.0890    -3.0320 ca         1 CEL      -0.264500
      3 C14         -1.7460    -0.9170    -2.2610 ca         1 CEL      -0.004000
      4 C13         -1.5480    -0.9580    -0.8700 ca         1 CEL      -0.117000
      5 C12         -0.7310    -0.0010    -0.2350 ca         1 CEL       0.057800
      6 C17         -0.1230     1.0080    -1.0090 ca         1 CEL      -0.117000
      7 C16         -0.3160     1.0540    -2.4000 ca         1 CEL      -0.004000
      8 N2          -0.5320    -0.0520     1.1480 na         1 CEL       0.226000
      9 C3           0.7080     0.0280     1.7700 cc         1 CEL      -0.069000
     10 C5           2.0740    -0.0580     1.2450 ca         1 CEL      -0.050000
     11 C10          2.3630    -0.8190     0.0930 ca         1 CEL      -0.082500
     12 C9           3.6760    -0.8940    -0.4040 ca         1 CEL      -0.112500
     13 C8           4.7220    -0.2150     0.2450 ca         1 CEL      -0.055300
     14 C11          6.1410    -0.2930    -0.2950 c3         1 CEL      -0.051800
     15 C7           4.4400     0.5420     1.3970 ca         1 CEL      -0.112500
     16 C6           3.1270     0.6170     1.8940 ca         1 CEL      -0.082500
     17 C2           0.3910     0.0880     3.0960 cd         1 CEL      -0.168000
     18 C1          -1.0290     0.0730     3.1870 cd         1 CEL       0.137300
     19 C4          -1.8470     0.1280     4.4690 c3         1 CEL       0.293700
     20 F3          -2.6680     1.2040     4.4990 f          1 CEL      -0.105667
     21 F2          -2.6260    -0.9690     4.6180 f          1 CEL      -0.105667
     22 F1          -1.0650     0.2030     5.5720 f          1 CEL      -0.105667
     23 N1          -1.6160     0.0040     1.9970 nc         1 CEL      -0.453800
     24 N3          -2.6970     1.0890    -4.9660 n8         1 CEL      -1.005100
     25 O2          -0.3240     0.9180    -5.4620 o          1 CEL      -0.541000
     26 O1          -1.8220    -1.1510    -5.3160 o          1 CEL      -0.541000
     27 H14C        -2.3800    -1.6660    -2.7330 ha         1 CEL       0.144000
     28 H13C        -2.0270    -1.7390    -0.2830 ha         1 CEL       0.141000
     29 H17C         0.5040     1.7580    -0.5320 ha         1 CEL       0.141000
     30 H16C         0.1630     1.8410    -2.9810 ha         1 CEL       0.144000
     31 H10C         1.5750    -1.3680    -0.4170 ha         1 CEL       0.120500
     32 HC9          3.8790    -1.4850    -1.2940 ha         1 CEL       0.118500
     33 H111         6.3270     0.5080    -1.0200 hc         1 CEL       0.047367
     34 H112         6.8810    -0.1960     0.5080 hc         1 CEL       0.047367
     35 H113         6.3260    -1.2500    -0.7980 hc         1 CEL       0.047367
     36 HC7          5.2380     1.0760     1.9070 ha         1 CEL       0.118500
     37 HC6          2.9300     1.2150     2.7810 ha         1 CEL       0.120500
     38 HC2          1.0870     0.1240     3.9270 ha         1 CEL       0.163000
     39 HN31        -2.3540     1.7710    -5.6380 hn         1 CEL       0.476500
     40 HN32        -3.2800     0.4930    -5.5480 hn         1 CEL       0.476500
@<TRIPOS>BOND
     1     1     2 1   
     2     1    24 1   
     3     1    25 2   
     4     1    26 2   
     5     2     3 ar  
     6     2     7 ar  
     7     3     4 ar  
     8     3    27 1   
     9     4     5 ar  
    10     4    28 1   
    11     5     6 ar  
    12     5     8 1   
    13     6     7 ar  
    14     6    29 1   
    15     7    30 1   
    16     8     9 1   
    17     8    23 1   
    18     9    10 1   
    19     9    17 2   
    20    10    11 ar  
    21    10    16 ar  
    22    11    12 ar  
    23    11    31 1   
    24    12    13 ar  
    25    12    32 1   
    26    13    14 1   
    27    13    15 ar  
    28    14    33 1   
    29    14    34 1   
    30    14    35 1   
    31    15    16 ar  
    32    15    36 1   
    33    16    37 1   
    34    17    18 1   
    35    17    38 1   
    36    18    19 1   
    37    18    23 2   
    38    19    20 1   
    39    19    21 1   
    40    19    22 1   
    41    24    39 1   
    42    24    40 1   
@<TRIPOS>SUBSTRUCTURE
     1 CEL         1 TEMP              0 ****  ****    0 ROOT
